api/pglib_opf_case1951_rte__api.m
%%%%%%%%%%%%%%%%%%%%%%%%%%%%%%%%%%%%%%%%%%%%%%%%%%%%%%%%%%%%%%%%%%%%%%%%%%%
%%%%                                                                  %%%%%
%%%%    IEEE PES Power Grid Library - Optimal Power Flow - v17.08     %%%%%
%%%%          (https://github.com/power-grid-lib/pglib-opf)           %%%%%
%%%%             Benchmark Group - Active Power Increase              %%%%%
%%%%                        29 - August - 2017                        %%%%%
%%%%                                                                  %%%%%
%%%%%%%%%%%%%%%%%%%%%%%%%%%%%%%%%%%%%%%%%%%%%%%%%%%%%%%%%%%%%%%%%%%%%%%%%%%
function mpc = pglib_opf_case1951_rte__api
mpc.version = '2';
mpc.baseMVA = 100.0;

%% bus data
%	bus_i	type	Pd	Qd	Gs	Bs	area	Vm	Va	baseKV	zone	Vmax	Vmin
mpc.bus = [
	1	 1	 43.67	 19.50	 0.0	 0.0	 1	    0.98889	    0.00000	 225.0	 1	    1.08889	    0.88889;
	2	 1	 0.00	 0.00	 0.0	 0.0	 1	    1.07552	    0.00000	 380.0	 1	    1.10263	    1.04841;
	3	 1	 294.20	 16.40	 0.0	 0.0	 1	    1.04444	    0.00000	 225.0	 1	    1.08444	    1.00444;
	4	 1	 0.00	 0.00	 0.0	 0.0	 1	    1.00334	    0.00000	 150.0	 1	    1.10667	    0.90000;
	5	 1	 62.15	 13.50	 0.0	 0.0	 1	    1.01111	    0.00000	 225.0	 1	    1.08889	    0.93333;
	6	 1	 43.91	 11.60	 0.0	 0.0	 1	    1.01111	    0.00000	 225.0	 1	    1.08889	    0.93333;
	7	 1	 0.00	 0.00	 0.0	 0.0	 1	    1.07237	    0.00000	 380.0	 1	    1.10526	    1.03947;
	8	 1	 0.00	 0.00	 0.0	 0.0	 1	    1.07237	    0.00000	 380.0	 1	    1.10526	    1.03947;
	9	 1	 0.00	 0.00	 0.0	 0.0	 1	    1.04739	    0.00000	 225.0	 1	    1.09035	    1.00444;
	10	 1	 232.04	 48.90	 0.0	 0.0	 1	    1.01111	    0.00000	 225.0	 1	    1.08889	    0.93333;
	11	 1	 69.23	 14.60	 0.0	 0.0	 1	    1.04666	    0.00000	 225.0	 1	    1.08889	    1.00444;
	12	 1	 33.35	 24.40	 0.0	 0.0	 1	    1.04666	    0.00000	 225.0	 1	    1.08889	    1.00444;
	13	 1	 212.97	 52.50	 0.0	 0.0	 1	    1.04666	    0.00000	 225.0	 1	    1.08889	    1.00444;
	14	 1	 90.95	 7.30	 0.0	 0.0	 1	    1.01626	    0.00000	 225.0	 1	    1.08252	    0.95000;
	15	 1	 0.00	 0.00	 0.0	 0.0	 1	    1.04666	    0.00000	 225.0	 1	    1.08889	    1.00444;
	16	 1	 0.00	 0.00	 0.0	 0.0	 1	    1.04666	    0.00000	 225.0	 1	    1.08889	    1.00444;
	17	 1	 79.43	 0.90	 0.0	 0.0	 1	    0.98889	    0.00000	 225.0	 1	    1.08889	    0.88889;
	18	 1	 14.76	 7.10	 0.0	 0.0	 1	    1.04150	    0.00000	 225.0	 1	    1.09633	    0.98667;
	19	 1	 81.47	 23.00	 0.0	 0.0	 1	    1.04666	    0.00000	 225.0	 1	    1.08889	    1.00444;
	20	 1	 35.03	 7.20	 0.0	 0.0	 1	    1.04666	    0.00000	 225.0	 1	    1.08889	    1.00444;
	21	 1	 93.35	 31.20	 0.0	 0.0	 1	    1.04666	    0.00000	 225.0	 1	    1.08889	    1.00444;
	22	 1	 126.70	 22.80	 0.0	 0.0	 1	    1.03778	    0.00000	 225.0	 1	    1.08889	    0.98667;
	23	 1	 49.31	 2.70	 0.0	 0.0	 1	    0.98889	    0.00000	 225.0	 1	    1.08889	    0.88889;
	25	 1	 67.43	 8.10	 0.0	 0.0	 1	    1.04666	    0.00000	 225.0	 1	    1.08444	    1.00889;
	26	 1	 35.15	 6.40	 0.0	 0.0	 1	    1.04666	    0.00000	 225.0	 1	    1.08444	    1.00889;
	27	 1	 122.50	 38.00	 0.0	 0.0	 1	    1.01111	    0.00000	 225.0	 1	    1.08889	    0.93333;
	28	 1	 206.49	 40.00	 0.0	 0.0	 1	    1.04666	    0.00000	 225.0	 1	    1.08889	    1.00444;
	29	 1	 0.00	 0.00	 0.0	 0.0	 1	    1.07684	    0.00000	 380.0	 1	    1.10526	    1.04842;
	30	 1	 0.00	 0.00	 0.0	 0.0	 1	    1.07684	    0.00000	 380.0	 1	    1.10526	    1.04842;
	31	 1	 43.43	 31.70	 0.0	 0.0	 1	    1.04666	    0.00000	 225.0	 1	    1.08444	    1.00889;
	33	 1	 159.82	 20.10	 0.0	 0.0	 1	    1.04666	    0.00000	 225.0	 1	    1.08444	    1.00889;
	34	 1	 107.26	 29.60	 0.0	 0.0	 1	    1.04666	    0.00000	 225.0	 1	    1.08889	    1.00444;
	2013	 1	 0.00	 0.00	 0.0	 0.0	 1	    1.04666	    0.00000	 225.0	 1	    1.08889	    1.00444;
	35	 1	 10.30	 -0.40	 0.0	 0.0	 1	    1.02333	    0.00000	 150.0	 1	    1.08000	    0.96667;
	36	 1	 26.76	 6.70	 0.0	 80.0	 1	    1.04606	    0.00000	 225.0	 1	    1.09212	    1.00000;
	37	 1	 0.00	 0.00	 0.0	 0.0	 1	    1.07655	    0.00000	 380.0	 1	    1.10526	    1.04785;
	38	 1	 173.01	 18.90	 0.0	 0.0	 1	    1.03778	    0.00000	 225.0	 1	    1.08889	    0.98667;
	39	 1	 141.34	 31.50	 0.0	 0.0	 1	    1.02889	    0.00000	 225.0	 1	    1.08889	    0.96889;
	40	 1	 233.72	 53.60	 0.0	 0.0	 1	    1.05263	    0.00000	 380.0	 1	    1.10526	    1.00000;
	41	 1	 77.63	 12.60	 0.0	 0.0	 1	    1.01111	    0.00000	 225.0	 1	    1.08889	    0.93333;
	42	 1	 53.51	 15.60	 0.0	 0.0	 1	    0.98889	    0.00000	 225.0	 1	    1.08889	    0.88889;
	43	 1	 56.27	 11.70	 0.0	 0.0	 1	    0.98889	    0.00000	 225.0	 1	    1.08889	    0.88889;
	44	 1	 457.49	 62.50	 0.0	 0.0	 1	    1.04470	    0.00000	 225.0	 1	    1.08496	    1.00444;
	45	 1	 161.50	 -38.50	 0.0	 0.0	 1	    1.04666	    0.00000	 225.0	 1	    1.08889	    1.00444;
	46	 2	 0.00	 0.00	 0.0	 0.0	 1	    1.00422	    0.00000	 150.0	 1	    1.10843	    0.90000;
	47	 1	 0.00	 0.00	 0.0	 0.0	 1	    1.04666	    0.00000	 225.0	 1	    1.08889	    1.00444;
	48	 1	 0.00	 0.00	 0.0	 0.0	 1	    1.04666	    0.00000	 225.0	 1	    1.08889	    1.00444;
	49	 1	 148.18	 43.40	 0.0	 0.0	 1	    1.04666	    0.00000	 225.0	 1	    1.08889	    1.00444;
	50	 1	 12.00	 3.70	 0.0	 0.0	 1	    1.04666	    0.00000	 225.0	 1	    1.08889	    1.00444;
	51	 1	 0.00	 0.00	 0.0	 0.0	 1	    1.04445	    0.00000	 225.0	 1	    1.08889	    1.00000;
	52	 1	 89.51	 28.00	 0.0	 0.0	 1	    0.98889	    0.00000	 225.0	 1	    1.08889	    0.88889;
	53	 1	 192.21	 38.20	 0.0	 0.0	 1	    1.02889	    0.00000	 225.0	 1	    1.08889	    0.96889;
	54	 1	 0.00	 0.00	 0.0	 0.0	 1	    1.05263	    0.00000	 380.0	 1	    1.10526	    1.00000;
	55	 1	 37.19	 11.00	 0.0	 0.0	 1	    1.04666	    0.00000	 225.0	 1	    1.08444	    1.00889;
	56	 1	 14.70	 -1.00	 0.0	 0.0	 1	    1.04666	    0.00000	 225.0	 1	    1.08444	    1.00889;
	1827	 1	 241.40	 11.70	 0.0	 0.0	 1	    1.04666	    0.00000	 225.0	 1	    1.08889	    1.00444;
	57	 1	 68.39	 3.00	 0.0	 0.0	 1	    1.01139	    0.00000	 225.0	 1	    1.08945	    0.93333;
	58	 2	 0.00	 0.00	 0.0	 0.0	 1	    1.00431	    0.00000	 150.0	 1	    1.10862	    0.90000;
	59	 1	 66.47	 19.70	 0.0	 0.0	 1	    1.04666	    0.00000	 225.0	 1	    1.08444	    1.00889;
	60	 1	 66.83	 41.60	 0.0	 0.0	 1	    1.04666	    0.00000	 225.0	 1	    1.08444	    1.00889;
	61	 1	 0.00	 0.00	 0.0	 0.0	 1	    1.03333	    0.00000	 225.0	 1	    1.08889	    0.97778;
	62	 1	 19.68	 4.90	 0.0	 0.0	 1	    0.98889	    0.00000	 225.0	 1	    1.08889	    0.88889;
	63	 1	 1.92	 12.70	 0.0	 0.0	 1	    1.01111	    0.00000	 225.0	 1	    1.08889	    0.93333;
	64	 1	 35.63	 12.00	 0.0	 0.0	 1	    1.04666	    0.00000	 225.0	 1	    1.08889	    1.00444;
	65	 1	 65.63	 13.60	 0.0	 0.0	 1	    1.04666	    0.00000	 225.0	 1	    1.08889	    1.00444;
	66	 1	 -21.90	 -5.10	 0.0	 0.0	 1	    1.04445	    0.00000	 225.0	 1	    1.08889	    1.00000;
	67	 1	 29.20	 -2.50	 0.0	 0.0	 1	    1.03778	    0.00000	 225.0	 1	    1.08889	    0.98667;
	68	 1	 0.00	 0.00	 0.0	 80.0	 1	    0.98889	    0.00000	 225.0	 1	    1.08889	    0.88889;
	69	 1	 0.00	 0.00	 0.0	 0.0	 1	    0.98889	    0.00000	 225.0	 1	    1.08889	    0.88889;
	70	 1	 0.00	 0.00	 0.0	 0.0	 1	    1.05921	    0.00000	 380.0	 1	    1.10526	    1.01316;
	71	 1	 91.55	 14.30	 0.0	 0.0	 1	    1.04666	    0.00000	 225.0	 1	    1.08889	    1.00444;
	72	 1	 34.79	 5.00	 0.0	 0.0	 1	    1.04666	    0.00000	 225.0	 1	    1.08889	    1.00444;
	73	 1	 0.00	 0.00	 0.0	 0.0	 1	    1.03333	    0.00000	 225.0	 1	    1.08889	    0.97778;
	74	 1	 0.00	 0.00	 0.0	 0.0	 1	    1.03333	    0.00000	 225.0	 1	    1.08889	    0.97778;
	75	 1	 218.85	 31.20	 0.0	 0.0	 1	    1.04666	    0.00000	 225.0	 1	    1.08444	    1.00889;
	76	 1	 0.00	 0.00	 0.0	 0.0	 1	    1.04444	    0.00000	 225.0	 1	    1.08444	    1.00444;
	77	 1	 0.00	 0.00	 0.0	 0.0	 1	    1.07237	    0.00000	 380.0	 1	    1.10263	    1.04211;
	78	 1	 139.30	 17.60	 0.0	 0.0	 1	    1.04444	    0.00000	 225.0	 1	    1.08444	    1.00444;
	79	 1	 -7.40	 0.90	 0.0	 0.0	 1	    1.04690	    0.00000	 225.0	 1	    1.08936	    1.00444;
	80	 1	 16.80	 12.60	 0.0	 0.0	 1	    1.04690	    0.00000	 225.0	 1	    1.08936	    1.00444;
	81	 1	 58.43	 2.90	 0.0	 0.0	 1	    0.98889	    0.00000	 225.0	 1	    1.08889	    0.88889;
	82	 1	 33.47	 3.30	 0.0	 0.0	 1	    1.01562	    0.00000	 225.0	 1	    1.08124	    0.95000;
	83	 1	 74.27	 19.70	 0.0	 0.0	 1	    0.98889	    0.00000	 225.0	 1	    1.08889	    0.88889;
	84	 1	 158.10	 -16.50	 0.0	 0.0	 1	    1.04445	    0.00000	 225.0	 1	    1.08889	    1.00000;
	85	 1	 0.00	 0.00	 0.0	 0.0	 1	    1.04445	    0.00000	 225.0	 1	    1.08889	    1.00000;
	86	 1	 484.37	 124.80	 0.0	 0.0	 1	    1.07798	    0.00000	 380.0	 1	    1.10526	    1.05070;
	87	 1	 130.30	 44.40	 0.0	 0.0	 1	    1.04445	    0.00000	 225.0	 1	    1.08889	    1.00000;
	88	 1	 168.81	 36.80	 0.0	 0.0	 1	    1.04445	    0.00000	 225.0	 1	    1.08889	    1.00000;
	89	 2	 0.00	 0.00	 0.0	 0.0	 1	    1.00000	    0.00000	 150.0	 1	    1.10000	    0.90000;
	90	 1	 67.91	 23.20	 0.0	 0.0	 1	    1.03778	    0.00000	 225.0	 1	    1.08889	    0.98667;
	91	 1	 15.00	 6.10	 0.0	 0.0	 1	    1.04666	    0.00000	 225.0	 1	    1.08444	    1.00889;
	92	 1	 0.00	 0.00	 0.0	 0.0	 1	    1.07369	    0.00000	 380.0	 1	    1.10526	    1.04211;
	93	 1	 0.00	 0.00	 0.0	 0.0	 1	    1.07369	    0.00000	 380.0	 1	    1.10526	    1.04211;
	96	 1	 15.24	 0.60	 0.0	 0.0	 1	    1.04445	    0.00000	 225.0	 1	    1.08889	    1.00000;
	97	 1	 21.96	 11.10	 0.0	 0.0	 1	    1.04666	    0.00000	 225.0	 1	    1.08889	    1.00444;
	98	 1	 108.94	 9.60	 0.0	 0.0	 1	    1.00000	    0.00000	 150.0	 1	    1.10000	    0.90000;
	99	 1	 82.10	 -2.60	 0.0	 0.0	 1	    1.04445	    0.00000	 225.0	 1	    1.08889	    1.00000;
	100	 2	 1.30	 0.00	 0.0	 0.0	 1	    1.01647	    0.00000	 225.0	 1	    1.08294	    0.95000;
	101	 1	 0.00	 0.00	 0.0	 0.0	 1	    1.01111	    0.00000	 225.0	 1	    1.08889	    0.93333;
	102	 1	 0.00	 0.00	 0.0	 0.0	 1	    1.07237	    0.00000	 380.0	 1	    1.10526	    1.03947;
	103	 1	 0.00	 0.00	 0.0	 0.0	 1	    1.07237	    0.00000	 380.0	 1	    1.10526	    1.03947;
	104	 1	 0.00	 0.00	 0.0	 0.0	 1	    1.04666	    0.00000	 225.0	 1	    1.08889	    1.00444;
	1828	 1	 104.26	 24.60	 0.0	 0.0	 1	    1.04666	    0.00000	 225.0	 1	    1.08889	    1.00444;
	105	 1	 0.00	 0.00	 0.0	 0.0	 1	    1.03778	    0.00000	 225.0	 1	    1.08889	    0.98667;
	106	 1	 15.36	 7.60	 0.0	 0.0	 1	    1.04666	    0.00000	 225.0	 1	    1.08889	    1.00444;
	107	 1	 180.09	 27.10	 0.0	 0.0	 1	    1.01111	    0.00000	 225.0	 1	    1.08889	    0.93333;
	108	 1	 0.00	 0.00	 0.0	 0.0	 1	    1.07237	    0.00000	 380.0	 1	    1.10526	    1.03947;
	109	 1	 32.10	 -1.60	 0.0	 0.0	 1	    1.04445	    0.00000	 225.0	 1	    1.08889	    1.00000;
	110	 1	 35.27	 1.20	 0.0	 0.0	 1	    1.04715	    0.00000	 225.0	 1	    1.08986	    1.00444;
	111	 1	 158.26	 2.80	 0.0	 0.0	 1	    1.04806	    0.00000	 225.0	 1	    1.09612	    1.00000;
	112	 1	 209.85	 55.60	 0.0	 0.0	 1	    1.03778	    0.00000	 225.0	 1	    1.08889	    0.98667;
	113	 1	 155.50	 33.20	 0.0	 0.0	 1	    1.04740	    0.00000	 225.0	 1	    1.09036	    1.00444;
	114	 1	 294.68	 120.60	 0.0	 0.0	 1	    1.00667	    0.00000	 225.0	 1	    1.08889	    0.92444;
	115	 1	 98.51	 14.70	 0.0	 0.0	 1	    1.04140	    0.00000	 225.0	 1	    1.09614	    0.98667;
	117	 1	 0.00	 0.00	 0.0	 0.0	 1	    1.07237	    0.00000	 380.0	 1	    1.10526	    1.03947;
	119	 1	 192.00	 -29.80	 0.0	 0.0	 1	    1.04444	    0.00000	 225.0	 1	    1.08444	    1.00444;
	120	 1	 21.60	 -16.90	 0.0	 0.0	 1	    1.04666	    0.00000	 225.0	 1	    1.08444	    1.00889;
	121	 1	 0.00	 0.00	 0.0	 0.0	 1	    1.06579	    0.00000	 380.0	 1	    1.10263	    1.02895;
	122	 1	 -0.10	 -4.20	 0.0	 0.0	 1	    1.01111	    0.00000	 225.0	 1	    1.08889	    0.93333;
	123	 1	 207.09	 37.20	 0.0	 0.0	 1	    1.01111	    0.00000	 225.0	 1	    1.08889	    0.93333;
	124	 1	 38.27	 29.80	 0.0	 0.0	 1	    1.00000	    0.00000	 63.0	 1	    1.07937	    0.92063;
	125	 2	 0.00	 0.00	 0.0	 0.0	 1	    1.01238	    0.00000	 225.0	 1	    1.07476	    0.95000;
	126	 1	 5.28	 5.30	 0.0	 0.0	 1	    1.04884	    0.00000	 225.0	 1	    1.09768	    1.00000;
	127	 1	 0.00	 0.00	 0.0	 0.0	 1	    1.07895	    0.00000	 380.0	 1	    1.10526	    1.05263;
	128	 1	 0.00	 0.00	 0.0	 0.0	 1	    1.07895	    0.00000	 380.0	 1	    1.10526	    1.05263;
	129	 1	 0.00	 0.00	 0.0	 0.0	 1	    1.07895	    0.00000	 380.0	 1	    1.10526	    1.05263;
	130	 1	 0.00	 0.00	 0.0	 0.0	 1	    1.07895	    0.00000	 380.0	 1	    1.10526	    1.05263;
	131	 1	 0.00	 0.00	 0.0	 0.0	 1	    1.04156	    0.00000	 225.0	 1	    1.09645	    0.98667;
	132	 1	 0.00	 0.00	 0.0	 0.0	 1	    1.04156	    0.00000	 225.0	 1	    1.09645	    0.98667;
	133	 1	 0.00	 0.00	 0.0	 0.0	 1	    1.07237	    0.00000	 380.0	 1	    1.10526	    1.03947;
	134	 1	 148.18	 26.50	 0.0	 0.0	 1	    1.02889	    0.00000	 225.0	 1	    1.08889	    0.96889;
	135	 1	 46.91	 10.10	 0.0	 0.0	 1	    1.04666	    0.00000	 225.0	 1	    1.08444	    1.00889;
	136	 1	 4.40	 -3.30	 0.0	 0.0	 1	    1.07237	    0.00000	 380.0	 1	    1.10526	    1.03947;
	137	 1	 200.25	 46.70	 0.0	 0.0	 1	    1.01111	    0.00000	 225.0	 1	    1.08889	    0.93333;
	138	 1	 0.00	 0.00	 0.0	 0.0	 1	    1.07237	    0.00000	 380.0	 1	    1.10526	    1.03947;
	140	 1	 242.36	 20.20	 0.0	 0.0	 1	    1.04666	    0.00000	 225.0	 1	    1.08444	    1.00889;
	142	 1	 231.30	 -18.30	 0.0	 0.0	 1	    1.04444	    0.00000	 225.0	 1	    1.08444	    1.00444;
	143	 1	 59.15	 7.80	 0.0	 0.0	 1	    1.01111	    0.00000	 225.0	 1	    1.08889	    0.93333;
	144	 1	 48.71	 10.30	 0.0	 0.0	 1	    1.01111	    0.00000	 225.0	 1	    1.08889	    0.93333;
	145	 1	 49.80	 -6.20	 0.0	 0.0	 1	    1.04698	    0.00000	 225.0	 1	    1.08952	    1.00444;
	146	 1	 0.00	 0.00	 0.0	 0.0	 1	    1.04739	    0.00000	 225.0	 1	    1.09478	    1.00000;
	147	 1	 0.00	 0.00	 0.0	 0.0	 1	    1.04739	    0.00000	 225.0	 1	    1.09478	    1.00000;
	148	 1	 82.43	 4.50	 0.0	 0.0	 1	    1.04445	    0.00000	 225.0	 1	    1.08889	    1.00000;
	149	 1	 30.00	 -1.50	 0.0	 0.0	 1	    1.04666	    0.00000	 225.0	 1	    1.08889	    1.00444;
	150	 1	 62.63	 3.90	 0.0	 0.0	 1	    1.04666	    0.00000	 225.0	 1	    1.08444	    1.00889;
	151	 1	 48.23	 6.80	 0.0	 0.0	 1	    1.04445	    0.00000	 225.0	 1	    1.08889	    1.00000;
	152	 1	 0.00	 0.00	 0.0	 0.0	 1	    1.04666	    0.00000	 225.0	 1	    1.08444	    1.00889;
	153	 1	 0.00	 0.00	 0.0	 0.0	 1	    1.04666	    0.00000	 225.0	 1	    1.08444	    1.00889;
	154	 1	 0.00	 0.00	 0.0	 0.0	 1	    1.04666	    0.00000	 225.0	 1	    1.08444	    1.00889;
	155	 1	 0.00	 0.00	 0.0	 0.0	 1	    1.06579	    0.00000	 380.0	 1	    1.10263	    1.02895;
	156	 1	 199.05	 38.20	 0.0	 0.0	 1	    0.98889	    0.00000	 225.0	 1	    1.08889	    0.88889;
	157	 1	 0.00	 0.00	 0.0	 0.0	 1	    1.04883	    0.00000	 225.0	 1	    1.09766	    1.00000;
	158	 1	 0.00	 0.00	 0.0	 0.0	 1	    1.07895	    0.00000	 380.0	 1	    1.10526	    1.05263;
	159	 1	 37.10	 -0.10	 0.0	 0.0	 1	    1.03778	    0.00000	 225.0	 1	    1.08889	    0.98667;
	160	 1	 21.48	 14.60	 0.0	 0.0	 1	    1.04445	    0.00000	 225.0	 1	    1.08889	    1.00000;
	161	 1	 0.00	 0.00	 0.0	 0.0	 1	    1.04444	    0.00000	 225.0	 1	    1.08444	    1.00444;
	162	 1	 0.00	 0.00	 0.0	 0.0	 1	    1.04444	    0.00000	 225.0	 1	    1.08444	    1.00444;
	163	 1	 0.00	 0.00	 0.0	 0.0	 1	    1.04444	    0.00000	 225.0	 1	    1.08444	    1.00444;
	164	 1	 96.90	 -7.40	 0.0	 0.0	 1	    1.04444	    0.00000	 225.0	 1	    1.08444	    1.00444;
	165	 1	 0.00	 0.00	 0.0	 0.0	 1	    1.01111	    0.00000	 225.0	 1	    1.08889	    0.93333;
	166	 1	 8.50	 -5.20	 0.0	 0.0	 1	    1.03778	    0.00000	 225.0	 1	    1.08889	    0.98667;
	167	 1	 0.00	 0.00	 0.0	 0.0	 1	    1.04470	    0.00000	 225.0	 1	    1.08941	    1.00000;
	168	 1	 0.00	 0.00	 0.0	 0.0	 1	    1.07895	    0.00000	 380.0	 1	    1.10526	    1.05263;
	169	 2	 0.00	 0.00	 0.0	 0.0	 1	    1.00000	    0.00000	 225.0	 1	    1.10000	    0.90000;
	170	 1	 15.60	 4.00	 0.0	 0.0	 1	    1.02333	    0.00000	 150.0	 1	    1.08000	    0.96667;
	171	 1	 60.47	 4.50	 0.0	 0.0	 1	    1.04666	    0.00000	 225.0	 1	    1.08889	    1.00444;
	172	 1	 0.48	 0.60	 0.0	 0.0	 1	    1.04666	    0.00000	 225.0	 1	    1.08889	    1.00444;
	173	 1	 29.10	 -7.90	 0.0	 0.0	 1	    0.98889	    0.00000	 225.0	 1	    1.08889	    0.88889;
	175	 1	 0.00	 0.00	 0.0	 0.0	 1	    1.04588	    0.00000	 225.0	 1	    1.09176	    1.00000;
	176	 1	 0.00	 0.00	 0.0	 0.0	 1	    1.04588	    0.00000	 225.0	 1	    1.09176	    1.00000;
	177	 1	 0.00	 0.00	 0.0	 0.0	 1	    1.04588	    0.00000	 225.0	 1	    1.09176	    1.00000;
	178	 1	 0.00	 0.00	 0.0	 0.0	 1	    1.04588	    0.00000	 225.0	 1	    1.09176	    1.00000;
	179	 1	 0.00	 0.00	 0.0	 0.0	 1	    1.04588	    0.00000	 225.0	 1	    1.09176	    1.00000;
	180	 2	 0.00	 0.00	 0.0	 0.0	 1	    1.00338	    0.00000	 380.0	 1	    1.10676	    0.90000;
	181	 1	 217.77	 39.90	 0.0	 0.0	 1	    1.04445	    0.00000	 225.0	 1	    1.08889	    1.00000;
	182	 1	 38.39	 21.40	 0.0	 0.0	 1	    1.03778	    0.00000	 225.0	 1	    1.08889	    0.98667;
	183	 1	 0.00	 0.00	 0.0	 0.0	 1	    1.07237	    0.00000	 380.0	 1	    1.10526	    1.03947;
	184	 1	 0.00	 0.00	 0.0	 0.0	 1	    1.07237	    0.00000	 380.0	 1	    1.10526	    1.03947;
	185	 1	 0.00	 0.00	 0.0	 0.0	 1	    1.07237	    0.00000	 380.0	 1	    1.10526	    1.03947;
	186	 1	 0.00	 0.00	 0.0	 0.0	 1	    1.07237	    0.00000	 380.0	 1	    1.10526	    1.03947;
	187	 1	 79.07	 23.30	 0.0	 0.0	 1	    1.00667	    0.00000	 225.0	 1	    1.08889	    0.92444;
	188	 1	 6.48	 1.40	 0.0	 0.0	 1	    1.03778	    0.00000	 225.0	 1	    1.08889	    0.98667;
	189	 1	 101.70	 -4.30	 0.0	 0.0	 1	    1.04444	    0.00000	 225.0	 1	    1.08444	    1.00444;
	190	 1	 -6.80	 -0.20	 0.0	 0.0	 1	    1.07237	    0.00000	 380.0	 1	    1.10263	    1.04211;
	191	 1	 -5.30	 -0.00	 0.0	 0.0	 1	    1.07237	    0.00000	 380.0	 1	    1.10263	    1.04211;
	192	 1	 0.00	 0.00	 0.0	 0.0	 1	    1.04666	    0.00000	 225.0	 1	    1.08889	    1.00444;
	193	 1	 0.00	 0.00	 0.0	 0.0	 1	    1.03333	    0.00000	 225.0	 1	    1.08889	    0.97778;
	194	 1	 0.00	 0.00	 0.0	 0.0	 1	    1.03333	    0.00000	 225.0	 1	    1.08889	    0.97778;
	195	 1	 162.58	 19.20	 0.0	 0.0	 1	    1.02889	    0.00000	 225.0	 1	    1.08889	    0.96889;
	196	 1	 0.00	 0.00	 0.0	 0.0	 1	    1.01111	    0.00000	 225.0	 1	    1.08889	    0.93333;
	197	 1	 0.00	 0.00	 0.0	 0.0	 1	    1.01111	    0.00000	 225.0	 1	    1.08889	    0.93333;
	198	 1	 118.66	 26.50	 0.0	 0.0	 1	    1.04444	    0.00000	 225.0	 1	    1.08444	    1.00444;
	199	 1	 299.20	 -25.20	 0.0	 0.0	 1	    1.04444	    0.00000	 225.0	 1	    1.08444	    1.00444;
	200	 1	 0.00	 0.00	 0.0	 0.0	 1	    1.03333	    0.00000	 225.0	 1	    1.08889	    0.97778;
	201	 1	 0.00	 0.00	 0.0	 0.0	 1	    1.04444	    0.00000	 225.0	 1	    1.08444	    1.00444;
	202	 1	 253.40	 31.00	 0.0	 0.0	 1	    1.02000	    0.00000	 225.0	 1	    1.08889	    0.95111;
	203	 1	 107.62	 19.50	 0.0	 0.0	 1	    1.04666	    0.00000	 225.0	 1	    1.08889	    1.00444;
	204	 1	 110.62	 26.00	 0.0	 0.0	 1	    1.03778	    0.00000	 225.0	 1	    1.08889	    0.98667;
	205	 1	 35.51	 2.70	 0.0	 0.0	 1	    1.04666	    0.00000	 225.0	 1	    1.08444	    1.00889;
	206	 1	 0.00	 0.00	 0.0	 0.0	 1	    1.06579	    0.00000	 380.0	 1	    1.10263	    1.02895;
...
];

%% generator data
%	bus	Pg	Qg	Qmax	Qmin	Vg	mBase	status	Pmax	Pmin	Pc1	Pc2	Qc1min	Qc1max	Qc2min	Qc2max	ramp_agc	ramp_10	ramp_30	ramp_q	apf
mpc.gen = [
	1268	 150.0	 0.0	 139.0	 -139.0	 1.029	 100.0	 1	 278	 22.0	 0.0	 0.0	 0.0	 0.0	 0.0	 0.0	 0.0	 0.0	 0.0	 0.0	 0.0; % NG
	1268	 157.0	 0.0	 146.0	 -146.0	 1.029	 100.0	 1	 292	 22.0	 0.0	 0.0	 0.0	 0.0	 0.0	 0.0	 0.0	 0.0	 0.0	 0.0	 0.0; % NG
	1356	 128.1	 0.0	 154.8	 -154.8	 1.057	 100.0	 1	 254	 2.2	 0.0	 0.0	 0.0	 0.0	 0.0	 0.0	 0.0	 0.0	 0.0	 0.0	 0.0; % PEL
	89	 52.25	 0.0	 69.6	 -69.6	 1.042	 100.0	 1	 102	 2.5	 0.0	 0.0	 0.0	 0.0	 0.0	 0.0	 0.0	 0.0	 0.0	 0.0	 0.0; % PEL
	1837	 56.3	 0.0	 86.4	 -86.4	 1.041	 100.0	 1	 110	 2.6	 0.0	 0.0	 0.0	 0.0	 0.0	 0.0	 0.0	 0.0	 0.0	 0.0	 0.0; % NG
	1837	 35.3	 0.0	 86.4	 -86.4	 1.041	 100.0	 1	 68	 2.6	 0.0	 0.0	 0.0	 0.0	 0.0	 0.0	 0.0	 0.0	 0.0	 0.0	 0.0; % PEL
	125	 54.17	 0.0	 53.0	 -53.0	 1.075	 100.0	 1	 106	 2.34	 0.0	 0.0	 0.0	 0.0	 0.0	 0.0	 0.0	 0.0	 0.0	 0.0	 0.0; % PEL
	908	 38.5	 0.0	 205.2	 -205.2	 1.106	 100.0	 1	 75	 2.0	 0.0	 0.0	 0.0	 0.0	 0.0	 0.0	 0.0	 0.0	 0.0	 0.0	 0.0; % PEL
	817	 27.6	 0.0	 596.4	 -596.4	 1.108	 100.0	 1	 54	 1.2	 0.0	 0.0	 0.0	 0.0	 0.0	 0.0	 0.0	 0.0	 0.0	 0.0	 0.0; % PEL
	817	 38.2	 0.0	 596.4	 -596.4	 1.108	 100.0	 1	 75	 1.4	 0.0	 0.0	 0.0	 0.0	 0.0	 0.0	 0.0	 0.0	 0.0	 0.0	 0.0; % PEL
	817	 87.6	 0.0	 596.4	 -596.4	 1.108	 100.0	 1	 174	 1.2	 0.0	 0.0	 0.0	 0.0	 0.0	 0.0	 0.0	 0.0	 0.0	 0.0	 0.0; % NG
	1335	 37.0	 0.0	 78.0	 -78.0	 1.044	 100.0	 1	 71	 3.0	 0.0	 0.0	 0.0	 0.0	 0.0	 0.0	 0.0	 0.0	 0.0	 0.0	 0.0; % NG
	396	 12.55	 0.0	 12.0	 -12.0	 1.031	 100.0	 0	 24	 1.1	 0.0	 0.0	 0.0	 0.0	 0.0	 0.0	 0.0	 0.0	 0.0	 0.0	 0.0; % NG
	396	 9.05	 0.0	 9.0	 -9.0	 1.031	 100.0	 0	 17	 1.1	 0.0	 0.0	 0.0	 0.0	 0.0	 0.0	 0.0	 0.0	 0.0	 0.0	 0.0; % NG
	975	 66.75	 0.0	 102.0	 -102.0	 1.048	 100.0	 1	 130	 3.5	 0.0	 0.0	 0.0	 0.0	 0.0	 0.0	 0.0	 0.0	 0.0	 0.0	 0.0; % NG
	858	 219.27	 0.0	 246.0	 -246.0	 1.054	 100.0	 1	 433	 5.54	 0.0	 0.0	 0.0	 0.0	 0.0	 0.0	 0.0	 0.0	 0.0	 0.0	 0.0; % NG
	921	 75.1	 0.0	 73.0	 -73.0	 1.085	 100.0	 1	 146	 4.2	 0.0	 0.0	 0.0	 0.0	 0.0	 0.0	 0.0	 0.0	 0.0	 0.0	 0.0; % NG
	921	 42.6	 0.0	 41.0	 -41.0	 1.085	 100.0	 1	 81	 4.2	 0.0	 0.0	 0.0	 0.0	 0.0	 0.0	 0.0	 0.0	 0.0	 0.0	 0.0; % PEL
	1255	 89.85	 0.0	 93.6	 -93.6	 1.067	 100.0	 1	 171	 8.7	 0.0	 0.0	 0.0	 0.0	 0.0	 0.0	 0.0	 0.0	 0.0	 0.0	 0.0; % NG
	169	 66.415	 0.0	 87.6	 -87.6	 1.065	 100.0	 1	 132	 0.83	 0.0	 0.0	 0.0	 0.0	 0.0	 0.0	 0.0	 0.0	 0.0	 0.0	 0.0; % NG
	448	 402.0	 0.0	 402.0	 -402.0	 1.068	 100.0	 1	 804	 0.0	 0.0	 0.0	 0.0	 0.0	 0.0	 0.0	 0.0	 0.0	 0.0	 0.0	 0.0; % PEL
	241	 10.15	 0.0	 10.0	 -10.0	 1.027	 100.0	 0	 19	 1.3	 0.0	 0.0	 0.0	 0.0	 0.0	 0.0	 0.0	 0.0	 0.0	 0.0	 0.0; % NG
	241	 15.65	 0.0	 15.0	 -15.0	 1.027	 100.0	 0	 30	 1.3	 0.0	 0.0	 0.0	 0.0	 0.0	 0.0	 0.0	 0.0	 0.0	 0.0	 0.0; % NG
	241	 10.15	 0.0	 10.0	 -10.0	 1.027	 100.0	 0	 19	 1.3	 0.0	 0.0	 0.0	 0.0	 0.0	 0.0	 0.0	 0.0	 0.0	 0.0	 0.0; % COW
	241	 16.15	 0.0	 16.0	 -16.0	 1.027	 100.0	 0	 31	 1.3	 0.0	 0.0	 0.0	 0.0	 0.0	 0.0	 0.0	 0.0	 0.0	 0.0	 0.0; % NG
	270	 100.5	 0.0	 98.0	 -98.0	 1.022	 100.0	 1	 196	 5.0	 0.0	 0.0	 0.0	 0.0	 0.0	 0.0	 0.0	 0.0	 0.0	 0.0	 0.0; % NG
	885	 111.4	 0.0	 111.0	 -111.0	 1.079	 100.0	 1	 222	 0.8	 0.0	 0.0	 0.0	 0.0	 0.0	 0.0	 0.0	 0.0	 0.0	 0.0	 0.0; % PEL
	885	 99.9	 0.0	 100.0	 -100.0	 1.079	 100.0	 1	 199	 0.8	 0.0	 0.0	 0.0	 0.0	 0.0	 0.0	 0.0	 0.0	 0.0	 0.0	 0.0; % NG
	876	 144.2	 0.0	 142.0	 -142.0	 1.046	 100.0	 1	 283	 5.4	 0.0	 0.0	 0.0	 0.0	 0.0	 0.0	 0.0	 0.0	 0.0	 0.0	 0.0; % NG
	180	 260.95	 0.0	 249.0	 -249.0	 1.106	 100.0	 1	 498	 23.9	 0.0	 0.0	 0.0	 0.0	 0.0	 0.0	 0.0	 0.0	 0.0	 0.0	 0.0; % NG
	46	 126.0	 0.0	 2599.2	 -2599.2	 1.107	 100.0	 1	 249	 3.0	 0.0	 0.0	 0.0	 0.0	 0.0	 0.0	 0.0	 0.0	 0.0	 0.0	 0.0; % COW
	803	 89.69	 0.0	 89.0	 -89.0	 1.067	 100.0	 1	 178	 1.38	 0.0	 0.0	 0.0	 0.0	 0.0	 0.0	 0.0	 0.0	 0.0	 0.0	 0.0; % NG
	356	 160.57	 0.0	 193.2	 -193.2	 1.06	 100.0	 1	 317	 4.14	 0.0	 0.0	 0.0	 0.0	 0.0	 0.0	 0.0	 0.0	 0.0	 0.0	 0.0; % NG
	100	 436.5	 0.0	 430.0	 -430.0	 1.047	 100.0	 1	 860	 13.0	 0.0	 0.0	 0.0	 0.0	 0.0	 0.0	 0.0	 0.0	 0.0	 0.0	 0.0; % NG
	707	 18.55	 0.0	 18.0	 -18.0	 1.092	 100.0	 0	 35	 2.1	 0.0	 0.0	 0.0	 0.0	 0.0	 0.0	 0.0	 0.0	 0.0	 0.0	 0.0; % NG
	973	 -4.0	 0.0	 6.0	 -6.0	 1.121	 100.0	 1	 0	 -8.0	 0.0	 0.0	 0.0	 0.0	 0.0	 0.0	 0.0	 0.0	 0.0	 0.0	 0.0; % SYNC
	973	 65.65	 0.0	 63.0	 -63.0	 1.121	 100.0	 1	 126	 5.3	 0.0	 0.0	 0.0	 0.0	 0.0	 0.0	 0.0	 0.0	 0.0	 0.0	 0.0; % NG
	1118	 456.75	 0.0	 454.0	 -454.0	 1.041	 100.0	 1	 908	 5.5	 0.0	 0.0	 0.0	 0.0	 0.0	 0.0	 0.0	 0.0	 0.0	 0.0	 0.0; % NG
	897	 50.85	 0.0	 50.0	 -50.0	 1.069	 100.0	 1	 99	 2.7	 0.0	 0.0	 0.0	 0.0	 0.0	 0.0	 0.0	 0.0	 0.0	 0.0	 0.0; % NG
	897	 40.35	 0.0	 39.0	 -39.0	 1.069	 100.0	 1	 78	 2.7	 0.0	 0.0	 0.0	 0.0	 0.0	 0.0	 0.0	 0.0	 0.0	 0.0	 0.0; % PEL
	58	 26.3	 0.0	 1876.8	 -1876.8	 1.107	 100.0	 1	 52	 0.6	 0.0	 0.0	 0.0	 0.0	 0.0	 0.0	 0.0	 0.0	 0.0	 0.0	 0.0; % NG
	82	 259.765	 0.0	 259.0	 -259.0	 1.051	 100.0	 1	 517	 2.53	 0.0	 0.0	 0.0	 0.0	 0.0	 0.0	 0.0	 0.0	 0.0	 0.0	 0.0; % NG
	474	 245.1	 0.0	 243.0	 -243.0	 1.076	 100.0	 1	 485	 5.2	 0.0	 0.0	 0.0	 0.0	 0.0	 0.0	 0.0	 0.0	 0.0	 0.0	 0.0; % NG
	1221	 77.9	 0.0	 88.8	 -88.8	 1.083	 100.0	 1	 150	 5.8	 0.0	 0.0	 0.0	 0.0	 0.0	 0.0	 0.0	 0.0	 0.0	 0.0	 0.0; % NG
	355	 41.1	 0.0	 40.0	 -40.0	 1.092	 100.0	 0	 76	 6.2	 0.0	 0.0	 0.0	 0.0	 0.0	 0.0	 0.0	 0.0	 0.0	 0.0	 0.0; % NG
	471	 351.4	 0.0	 348.0	 -348.0	 1.039	 100.0	 1	 695	 7.8	 0.0	 0.0	 0.0	 0.0	 0.0	 0.0	 0.0	 0.0	 0.0	 0.0	 0.0; % COW
	1321	 57.55	 0.0	 3182.4	 -3182.4	 1.108	 100.0	 1	 114	 1.1	 0.0	 0.0	 0.0	 0.0	 0.0	 0.0	 0.0	 0.0	 0.0	 0.0	 0.0; % NG
	1321	 2.0	 0.0	 2.0	 -2.0	 1.108	 100.0	 0	 4	 0.0	 0.0	 0.0	 0.0	 0.0	 0.0	 0.0	 0.0	 0.0	 0.0	 0.0	 0.0; % PEL
	1829	 220.675	 0.0	 220.0	 -220.0	 1.054	 100.0	 1	 439	 2.35	 0.0	 0.0	 0.0	 0.0	 0.0	 0.0	 0.0	 0.0	 0.0	 0.0	 0.0; % NG
	1005	 33.45	 0.0	 32.0	 -32.0	 1.11	 100.0	 1	 63	 3.9	 0.0	 0.0	 0.0	 0.0	 0.0	 0.0	 0.0	 0.0	 0.0	 0.0	 0.0; % NG
	14	 203.38	 0.0	 202.0	 -202.0	 1.059	 100.0	 1	 404	 2.76	 0.0	 0.0	 0.0	 0.0	 0.0	 0.0	 0.0	 0.0	 0.0	 0.0	 0.0; % NG
	14	 218.2	 0.0	 217.0	 -217.0	 1.059	 100.0	 1	 434	 2.4	 0.0	 0.0	 0.0	 0.0	 0.0	 0.0	 0.0	 0.0	 0.0	 0.0	 0.0; % PEL
	1628	 566.0	 0.0	 516.0	 -516.0	 0.997	 100.0	 1	 1032	 100.0	 0.0	 0.0	 0.0	 0.0	 0.0	 0.0	 0.0	 0.0	 0.0	 0.0	 0.0; % COW
	1629	 510.0	 0.0	 475.0	 -475.0	 1.006	 100.0	 1	 950	 70.0	 0.0	 0.0	 0.0	 0.0	 0.0	 0.0	 0.0	 0.0	 0.0	 0.0	 0.0; % NUC
	1842	 37.15	 0.0	 36.0	 -36.0	 1.001	 100.0	 1	 72	 2.3	 0.0	 0.0	 0.0	 0.0	 0.0	 0.0	 0.0	 0.0	 0.0	 0.0	 0.0; % NG
	1843	 28.65	 0.0	 28.0	 -28.0	 1.004	 100.0	 1	 55	 2.3	 0.0	 0.0	 0.0	 0.0	 0.0	 0.0	 0.0	 0.0	 0.0	 0.0	 0.0; % PEL
	1844	 56.85	 0.0	 56.0	 -56.0	 0.997	 100.0	 1	 111	 2.7	 0.0	 0.0	 0.0	 0.0	 0.0	 0.0	 0.0	 0.0	 0.0	 0.0	 0.0; % COW
	1630	 52.3	 0.0	 48.0	 -48.0	 0.966	 100.0	 1	 96	 8.6	 0.0	 0.0	 0.0	 0.0	 0.0	 0.0	 0.0	 0.0	 0.0	 0.0	 0.0; % NG
	1631	 32.45	 0.0	 30.0	 -30.0	 0.97	 100.0	 1	 60	 4.9	 0.0	 0.0	 0.0	 0.0	 0.0	 0.0	 0.0	 0.0	 0.0	 0.0	 0.0; % NG
	1845	 81.7	 0.0	 76.0	 -76.0	 1.03	 100.0	 1	 151	 12.4	 0.0	 0.0	 0.0	 0.0	 0.0	 0.0	 0.0	 0.0	 0.0	 0.0	 0.0; % NG
	1846	 19.6	 0.0	 18.0	 -18.0	 1.05	 100.0	 1	 36	 3.2	 0.0	 0.0	 0.0	 0.0	 0.0	 0.0	 0.0	 0.0	 0.0	 0.0	 0.0; % NG
	1632	 21.6	 0.0	 20.0	 -20.0	 1.05	 100.0	 1	 40	 3.2	 0.0	 0.0	 0.0	 0.0	 0.0	 0.0	 0.0	 0.0	 0.0	 0.0	 0.0; % NG
	1847	 49.6	 0.0	 48.0	 -48.0	 1.05	 100.0	 1	 96	 3.2	 0.0	 0.0	 0.0	 0.0	 0.0	 0.0	 0.0	 0.0	 0.0	 0.0	 0.0; % COW
	1848	 46.6	 0.0	 45.0	 -45.0	 1.05	 100.0	 1	 90	 3.2	 0.0	 0.0	 0.0	 0.0	 0.0	 0.0	 0.0	 0.0	 0.0	 0.0	 0.0; % NG
	1849	 61.6	 0.0	 57.0	 -57.0	 1.032	 100.0	 1	 114	 9.2	 0.0	 0.0	 0.0	 0.0	 0.0	 0.0	 0.0	 0.0	 0.0	 0.0	 0.0; % NG
	1850	 80.1	 0.0	 76.0	 -76.0	 1.029	 100.0	 1	 151	 9.2	 0.0	 0.0	 0.0	 0.0	 0.0	 0.0	 0.0	 0.0	 0.0	 0.0	 0.0; % NG
	1851	 159.1	 0.0	 155.0	 -155.0	 1.032	 100.0	 1	 309	 9.2	 0.0	 0.0	 0.0	 0.0	 0.0	 0.0	 0.0	 0.0	 0.0	 0.0	 0.0; % NG
	1852	 132.6	 0.0	 128.0	 -128.0	 1.03	 100.0	 1	 256	 9.2	 0.0	 0.0	 0.0	 0.0	 0.0	 0.0	 0.0	 0.0	 0.0	 0.0	 0.0; % NG
	1853	 48.1	 -4.77	 55.26	 -64.8	 1.032	 100.0	 1	 87	 9.2	 0.0	 0.0	 0.0	 0.0	 0.0	 0.0	 0.0	 0.0	 0.0	 0.0	 0.0; % NG
	1854	 144.1	 0.0	 140.0	 -140.0	 1.033	 100.0	 1	 279	 9.2	 0.0	 0.0	 0.0	 0.0	 0.0	 0.0	 0.0	 0.0	 0.0	 0.0	 0.0; % COW
	1633	 737.2675	 0.0	 674.0	 -674.0	 1.013	 100.0	 1	 1347	 127.535	 0.0	 0.0	 0.0	 0.0	 0.0	 0.0	 0.0	 0.0	 0.0	 0.0	 0.0; % COW
	1634	 630.0125	 0.0	 558.0	 -558.0	 1.013	 100.0	 1	 1116	 144.025	 0.0	 0.0	 0.0	 0.0	 0.0	 0.0	 0.0	 0.0	 0.0	 0.0	 0.0; % NG
	1635	 854.02	 0.0	 790.0	 -790.0	 1.013	 100.0	 1	 1580	 128.04	 0.0	 0.0	 0.0	 0.0	 0.0	 0.0	 0.0	 0.0	 0.0	 0.0	 0.0; % NUC
	1636	 661.2675	 0.0	 598.0	 -598.0	 1.013	 100.0	 1	 1196	 126.535	 0.0	 0.0	 0.0	 0.0	 0.0	 0.0	 0.0	 0.0	 0.0	 0.0	 0.0; % COW
	1637	 139.0	 26.515	 153.03	 -100.0	 1.033	 100.0	 1	 200	 78.0	 0.0	 0.0	 0.0	 0.0	 0.0	 0.0	 0.0	 0.0	 0.0	 0.0	 0.0; % NG
	1638	 314.5	 0.0	 276.0	 -276.0	 1.029	 100.0	 1	 552	 77.0	 0.0	 0.0	 0.0	 0.0	 0.0	 0.0	 0.0	 0.0	 0.0	 0.0	 0.0; % NG
	1639	 251.5	 0.0	 213.0	 -213.0	 1.033	 100.0	 1	 426	 77.0	 0.0	 0.0	 0.0	 0.0	 0.0	 0.0	 0.0	 0.0	 0.0	 0.0	 0.0; % COW
	1640	 169.5	 34.45	 228.81	 -159.91	 1.05	 100.0	 1	 278	 61.0	 0.0	 0.0	 0.0	 0.0	 0.0	 0.0	 0.0	 0.0	 0.0	 0.0	 0.0; % NG
	1641	 155.75	 0.0	 134.0	 -134.0	 1.045	 100.0	 1	 267	 44.5	 0.0	 0.0	 0.0	 0.0	 0.0	 0.0	 0.0	 0.0	 0.0	 0.0	 0.0; % NG
	1642	 71.4	 0.0	 69.0	 -69.0	 1.006	 100.0	 1	 137	 5.8	 0.0	 0.0	 0.0	 0.0	 0.0	 0.0	 0.0	 0.0	 0.0	 0.0	 0.0; % NG
	1643	 53.9	 0.0	 51.0	 -51.0	 1.005	 100.0	 1	 102	 5.8	 0.0	 0.0	 0.0	 0.0	 0.0	 0.0	 0.0	 0.0	 0.0	 0.0	 0.0; % PEL
	1855	 65.4	 0.0	 63.0	 -63.0	 1.006	 100.0	 1	 125	 5.8	 0.0	 0.0	 0.0	 0.0	 0.0	 0.0	 0.0	 0.0	 0.0	 0.0	 0.0; % NG
	1644	 68.4	 0.0	 66.0	 -66.0	 1.005	 100.0	 1	 131	 5.8	 0.0	 0.0	 0.0	 0.0	 0.0	 0.0	 0.0	 0.0	 0.0	 0.0	 0.0; % NG
	1645	 49.9	 0.0	 47.0	 -47.0	 1.005	 100.0	 1	 94	 5.8	 0.0	 0.0	 0.0	 0.0	 0.0	 0.0	 0.0	 0.0	 0.0	 0.0	 0.0; % PEL
	1646	 235.75	 0.0	 203.0	 -203.0	 1.007	 100.0	 1	 405	 66.5	 0.0	 0.0	 0.0	 0.0	 0.0	 0.0	 0.0	 0.0	 0.0	 0.0	 0.0; % NG
	1647	 49.2475	 1.835	 50.67	 -47.0	 1.061	 100.0	 1	 94	 4.495	 0.0	 0.0	 0.0	 0.0	 0.0	 0.0	 0.0	 0.0	 0.0	 0.0	 0.0; % PEL
	1856	 84.95	 15.22	 108.44	 -78.0	 1.023	 100.0	 1	 156	 13.9	 0.0	 0.0	 0.0	 0.0	 0.0	 0.0	 0.0	 0.0	 0.0	 0.0	 0.0; % NG
	1857	 94.45	 0.0	 92.0	 -92.0	 0.986	 100.0	 1	 184	 4.9	 0.0	 0.0	 0.0	 0.0	 0.0	 0.0	 0.0	 0.0	 0.0	 0.0	 0.0; % COW
	1858	 97.45	 0.0	 95.0	 -95.0	 0.99	 100.0	 1	 190	 4.9	 0.0	 0.0	 0.0	 0.0	 0.0	 0.0	 0.0	 0.0	 0.0	 0.0	 0.0; % NG
	1859	 43.45	 0.0	 41.0	 -41.0	 0.988	 100.0	 1	 82	 4.9	 0.0	 0.0	 0.0	 0.0	 0.0	 0.0	 0.0	 0.0	 0.0	 0.0	 0.0; % NG
	2070	 50.45	 0.0	 48.0	 -48.0	 0.992	 100.0	 1	 96	 4.9	 0.0	 0.0	 0.0	 0.0	 0.0	 0.0	 0.0	 0.0	 0.0	 0.0	 0.0; % NG
	1860	 65.1	 0.0	 64.0	 -64.0	 1.039	 100.0	 1	 127	 3.2	 0.0	 0.0	 0.0	 0.0	 0.0	 0.0	 0.0	 0.0	 0.0	 0.0	 0.0; % NG
	1861	 18.6	 1.375	 19.75	 -17.0	 1.046	 100.0	 1	 34	 3.2	 0.0	 0.0	 0.0	 0.0	 0.0	 0.0	 0.0	 0.0	 0.0	 0.0	 0.0; % PEL
	1648	 531.5725	 32.995	 530.99	 -465.0	 1.05	 100.0	 1	 930	 133.145	 0.0	 0.0	 0.0	 0.0	 0.0	 0.0	 0.0	 0.0	 0.0	 0.0	 0.0; % COW
	1649	 643.705	 0.0	 576.0	 -576.0	 1.045	 100.0	 1	 1151	 136.41	 0.0	 0.0	 0.0	 0.0	 0.0	 0.0	 0.0	 0.0	 0.0	 0.0	 0.0; % COW
	1650	 590.07	 7.84	 537.68	 -522.0	 1.05	 100.0	 1	 1043	 137.14	 0.0	 0.0	 0.0	 0.0	 0.0	 0.0	 0.0	 0.0	 0.0	 0.0	 0.0; % COW
	1651	 614.2	 0.0	 546.0	 -546.0	 1.044	 100.0	 1	 1092	 136.4	 0.0	 0.0	 0.0	 0.0	 0.0	 0.0	 0.0	 0.0	 0.0	 0.0	 0.0; % COW
	1652	 737.5	 11.52	 681.04	 -658.0	 1.018	 100.0	 1	 1316	 159.0	 0.0	 0.0	 0.0	 0.0	 0.0	 0.0	 0.0	 0.0	 0.0	 0.0	 0.0; % COW
	1862	 1101.5	 0.0	 1022.0	 -1022.0	 1.018	 100.0	 1	 2044	 159.0	 0.0	 0.0	 0.0	 0.0	 0.0	 0.0	 0.0	 0.0	 0.0	 0.0	 0.0; % COW
	1653	 71.25	 0.0	 70.0	 -70.0	 1.041	 100.0	 1	 139	 3.5	 0.0	 0.0	 0.0	 0.0	 0.0	 0.0	 0.0	 0.0	 0.0	 0.0	 0.0; % NG
	1654	 54.75	 0.0	 53.0	 -53.0	 1.041	 100.0	 1	 106	 3.5	 0.0	 0.0	 0.0	 0.0	 0.0	 0.0	 0.0	 0.0	 0.0	 0.0	 0.0; % NG
	1655	 86.75	 0.0	 85.0	 -85.0	 1.041	 100.0	 1	 170	 3.5	 0.0	 0.0	 0.0	 0.0	 0.0	 0.0	 0.0	 0.0	 0.0	 0.0	 0.0; % COW
	1656	 43.25	 0.0	 42.0	 -42.0	 1.041	 100.0	 1	 83	 3.5	 0.0	 0.0	 0.0	 0.0	 0.0	 0.0	 0.0	 0.0	 0.0	 0.0	 0.0; % NG
	1657	 47.25	 0.0	 46.0	 -46.0	 1.041	 100.0	 1	 91	 3.5	 0.0	 0.0	 0.0	 0.0	 0.0	 0.0	 0.0	 0.0	 0.0	 0.0	 0.0; % PEL
	1658	 134.75	 0.0	 133.0	 -133.0	 1.041	 100.0	 1	 266	 3.5	 0.0	 0.0	 0.0	 0.0	 0.0	 0.0	 0.0	 0.0	 0.0	 0.0	 0.0; % NG
	1863	 26.3475	 0.0	 25.0	 -25.0	 0.996	 100.0	 1	 49	 3.695	 0.0	 0.0	 0.0	 0.0	 0.0	 0.0	 0.0	 0.0	 0.0	 0.0	 0.0; % PEL
	1659	 53.3475	 0.0	 52.0	 -52.0	 0.996	 100.0	 1	 103	 3.695	 0.0	 0.0	 0.0	 0.0	 0.0	 0.0	 0.0	 0.0	 0.0	 0.0	 0.0; % NG
	1660	 26.8475	 0.0	 25.0	 -25.0	 0.996	 100.0	 1	 50	 3.695	 0.0	 0.0	 0.0	 0.0	 0.0	 0.0	 0.0	 0.0	 0.0	 0.0	 0.0; % PEL
	1661	 21.8475	 0.0	 20.0	 -20.0	 0.996	 100.0	 1	 40	 3.695	 0.0	 0.0	 0.0	 0.0	 0.0	 0.0	 0.0	 0.0	 0.0	 0.0	 0.0; % NG
	1662	 46.8475	 0.0	 45.0	 -45.0	 0.995	 100.0	 1	 90	 3.695	 0.0	 0.0	 0.0	 0.0	 0.0	 0.0	 0.0	 0.0	 0.0	 0.0	 0.0; % PEL
	1663	 39.3475	 0.0	 38.0	 -38.0	 0.995	 100.0	 1	 75	 3.695	 0.0	 0.0	 0.0	 0.0	 0.0	 0.0	 0.0	 0.0	 0.0	 0.0	 0.0; % NG
	1864	 53.0	 0.0	 52.0	 -52.0	 0.975	 100.0	 1	 104	 2.0	 0.0	 0.0	 0.0	 0.0	 0.0	 0.0	 0.0	 0.0	 0.0	 0.0	 0.0; % COW
	1865	 24.5	 0.0	 24.0	 -24.0	 0.975	 100.0	 1	 47	 2.0	 0.0	 0.0	 0.0	 0.0	 0.0	 0.0	 0.0	 0.0	 0.0	 0.0	 0.0; % PEL
	1866	 43.55	 0.0	 42.0	 -42.0	 0.994	 100.0	 1	 84	 3.1	 0.0	 0.0	 0.0	 0.0	 0.0	 0.0	 0.0	 0.0	 0.0	 0.0	 0.0; % NG
	1664	 85.05	 0.0	 84.0	 -84.0	 0.993	 100.0	 1	 167	 3.1	 0.0	 0.0	 0.0	 0.0	 0.0	 0.0	 0.0	 0.0	 0.0	 0.0	 0.0; % NG
	1665	 21.55	 0.0	 20.0	 -20.0	 0.994	 100.0	 1	 40	 3.1	 0.0	 0.0	 0.0	 0.0	 0.0	 0.0	 0.0	 0.0	 0.0	 0.0	 0.0; % PEL
	1867	 73.55	 0.0	 72.0	 -72.0	 0.994	 100.0	 1	 144	 3.1	 0.0	 0.0	 0.0	 0.0	 0.0	 0.0	 0.0	 0.0	 0.0	 0.0	 0.0; % NG
	1666	 35.55	 0.0	 34.0	 -34.0	 0.995	 100.0	 1	 68	 3.1	 0.0	 0.0	 0.0	 0.0	 0.0	 0.0	 0.0	 0.0	 0.0	 0.0	 0.0; % PEL
	1868	 37.05	 0.0	 36.0	 -36.0	 0.995	 100.0	 1	 71	 3.1	 0.0	 0.0	 0.0	 0.0	 0.0	 0.0	 0.0	 0.0	 0.0	 0.0	 0.0; % PEL
	1667	 613.25	 63.53	 656.06	 -529.0	 1.04	 100.0	 1	 1058	 168.5	 0.0	 0.0	 0.0	 0.0	 0.0	 0.0	 0.0	 0.0	 0.0	 0.0	 0.0; % COW
	1869	 385.25	 93.895	 515.51	 -327.72	 1.04	 100.0	 1	 537	 233.5	 0.0	 0.0	 0.0	 0.0	 0.0	 0.0	 0.0	 0.0	 0.0	 0.0	 0.0; % COW
	1668	 567.75	 90.46	 656.92	 -476.0	 1.042	 100.0	 1	 952	 183.5	 0.0	 0.0	 0.0	 0.0	 0.0	 0.0	 0.0	 0.0	 0.0	 0.0	 0.0; % COW
	1669	 565.25	 87.015	 648.03	 -474.0	 1.048	 100.0	 1	 947	 183.5	 0.0	 0.0	 0.0	 0.0	 0.0	 0.0	 0.0	 0.0	 0.0	 0.0	 0.0; % COW
	1870	 264.0	 0.0	 260.0	 -260.0	 0.977	 100.0	 1	 519	 9.0	 0.0	 0.0	 0.0	 0.0	 0.0	 0.0	 0.0	 0.0	 0.0	 0.0	 0.0; % NG
	1871	 138.25	 0.0	 134.0	 -134.0	 1.036	 100.0	 0	 267	 9.5	 0.0	 0.0	 0.0	 0.0	 0.0	 0.0	 0.0	 0.0	 0.0	 0.0	 0.0; % NG
	1872	 58.6	 2.805	 59.61	 -54.0	 0.993	 100.0	 0	 107	 10.2	 0.0	 0.0	 0.0	 0.0	 0.0	 0.0	 0.0	 0.0	 0.0	 0.0	 0.0; % NG
	1670	 349.35	 0.0	 349.0	 -349.0	 1.018	 100.0	 1	 698	 0.7	 0.0	 0.0	 0.0	 0.0	 0.0	 0.0	 0.0	 0.0	 0.0	 0.0	 0.0; % PEL
	1873	 275.5	 0.0	 264.0	 -264.0	 1.027	 100.0	 1	 527	 24.0	 0.0	 0.0	 0.0	 0.0	 0.0	 0.0	 0.0	 0.0	 0.0	 0.0	 0.0; % COW
	1874	 134.5	 0.0	 184.8	 -184.8	 1.028	 100.0	 1	 245	 24.0	 0.0	 0.0	 0.0	 0.0	 0.0	 0.0	 0.0	 0.0	 0.0	 0.0	 0.0; % NG
	1671	 609.68	 0.0	 552.0	 -552.0	 1.029	 100.0	 1	 1103	 116.36	 0.0	 0.0	 0.0	 0.0	 0.0	 0.0	 0.0	 0.0	 0.0	 0.0	 0.0; % COW
	1673	 615.935	 0.0	 555.0	 -555.0	 1.027	 100.0	 1	 1110	 121.87	 0.0	 0.0	 0.0	 0.0	 0.0	 0.0	 0.0	 0.0	 0.0	 0.0	 0.0; % NUC
	1674	 821.685	 0.0	 761.0	 -761.0	 1.032	 100.0	 1	 1522	 121.37	 0.0	 0.0	 0.0	 0.0	 0.0	 0.0	 0.0	 0.0	 0.0	 0.0	 0.0; % COW
	1675	 1104.25	 0.0	 1004.0	 -1004.0	 1.053	 100.0	 1	 2007	 201.5	 0.0	 0.0	 0.0	 0.0	 0.0	 0.0	 0.0	 0.0	 0.0	 0.0	 0.0; % COW
	1676	 785.25	 1.085	 687.17	 -685.0	 1.057	 100.0	 1	 1369	 201.5	 0.0	 0.0	 0.0	 0.0	 0.0	 0.0	 0.0	 0.0	 0.0	 0.0	 0.0; % NUC
	1875	 1148.5	 0.0	 1049.0	 -1049.0	 1.002	 100.0	 1	 2098	 199.0	 0.0	 0.0	 0.0	 0.0	 0.0	 0.0	 0.0	 0.0	 0.0	 0.0	 0.0; % COW
	1677	 930.5	 0.0	 831.0	 -831.0	 1.002	 100.0	 1	 1662	 199.0	 0.0	 0.0	 0.0	 0.0	 0.0	 0.0	 0.0	 0.0	 0.0	 0.0	 0.0; % COW
	1877	 79.25	 0.0	 76.0	 -76.0	 1.077	 100.0	 1	 151	 7.5	 0.0	 0.0	 0.0	 0.0	 0.0	 0.0	 0.0	 0.0	 0.0	 0.0	 0.0; % PEL
	1878	 188.25	 0.0	 185.0	 -185.0	 1.077	 100.0	 1	 369	 7.5	 0.0	 0.0	 0.0	 0.0	 0.0	 0.0	 0.0	 0.0	 0.0	 0.0	 0.0; % NG
	1678	 103.125	 1.56	 104.12	 -101.0	 1.001	 100.0	 1	 202	 4.25	 0.0	 0.0	 0.0	 0.0	 0.0	 0.0	 0.0	 0.0	 0.0	 0.0	 0.0; % NG
	1679	 92.625	 6.47	 103.94	 -91.0	 1.001	 100.0	 1	 181	 4.25	 0.0	 0.0	 0.0	 0.0	 0.0	 0.0	 0.0	 0.0	 0.0	 0.0	 0.0; % NG
	1680	 207.05	 0.0	 206.0	 -206.0	 1.007	 100.0	 1	 412	 2.1	 0.0	 0.0	 0.0	 0.0	 0.0	 0.0	 0.0	 0.0	 0.0	 0.0	 0.0; % NG
	1681	 573.5	 0.0	 529.0	 -529.0	 0.997	 100.0	 1	 1057	 90.0	 0.0	 0.0	 0.0	 0.0	 0.0	 0.0	 0.0	 0.0	 0.0	 0.0	 0.0; % COW
	1682	 460.5	 0.0	 383.0	 -383.0	 1.007	 100.0	 1	 766	 155.0	 0.0	 0.0	 0.0	 0.0	 0.0	 0.0	 0.0	 0.0	 0.0	 0.0	 0.0; % NG
	1683	 515.0	 0.0	 438.0	 -438.0	 1.003	 100.0	 1	 875	 155.0	 0.0	 0.0	 0.0	 0.0	 0.0	 0.0	 0.0	 0.0	 0.0	 0.0	 0.0; % COW
	1684	 546.75	 0.0	 496.0	 -496.0	 1.004	 100.0	 1	 991	 102.5	 0.0	 0.0	 0.0	 0.0	 0.0	 0.0	 0.0	 0.0	 0.0	 0.0	 0.0; % COW
	1880	 58.4	 0.0	 57.0	 -57.0	 1.056	 100.0	 1	 113	 3.8	 0.0	 0.0	 0.0	 0.0	 0.0	 0.0	 0.0	 0.0	 0.0	 0.0	 0.0; % COW
	2045	 41.55	 0.0	 40.0	 -40.0	 1.045	 100.0	 0	 80	 3.1	 0.0	 0.0	 0.0	 0.0	 0.0	 0.0	 0.0	 0.0	 0.0	 0.0	 0.0; % NG
	2081	 41.55	 0.0	 40.0	 -40.0	 1.045	 100.0	 0	 80	 3.1	 0.0	 0.0	 0.0	 0.0	 0.0	 0.0	 0.0	 0.0	 0.0	 0.0	 0.0; % NG
	1881	 36.0	 0.0	 34.0	 -34.0	 0.976	 100.0	 1	 67	 5.0	 0.0	 0.0	 0.0	 0.0	 0.0	 0.0	 0.0	 0.0	 0.0	 0.0	 0.0; % NG
	1882	 29.5	 0.0	 27.0	 -27.0	 0.976	 100.0	 1	 54	 5.0	 0.0	 0.0	 0.0	 0.0	 0.0	 0.0	 0.0	 0.0	 0.0	 0.0	 0.0; % NG
	1685	 50.5	 0.0	 48.0	 -48.0	 0.976	 100.0	 1	 96	 5.0	 0.0	 0.0	 0.0	 0.0	 0.0	 0.0	 0.0	 0.0	 0.0	 0.0	 0.0; % NG
	1883	 51.0	 0.0	 49.0	 -49.0	 0.976	 100.0	 1	 97	 5.0	 0.0	 0.0	 0.0	 0.0	 0.0	 0.0	 0.0	 0.0	 0.0	 0.0	 0.0; % NG
	1884	 67.0	 0.0	 65.0	 -65.0	 0.977	 100.0	 1	 129	 5.0	 0.0	 0.0	 0.0	 0.0	 0.0	 0.0	 0.0	 0.0	 0.0	 0.0	 0.0; % NG
	1885	 59.5	 0.0	 57.0	 -57.0	 0.976	 100.0	 1	 114	 5.0	 0.0	 0.0	 0.0	 0.0	 0.0	 0.0	 0.0	 0.0	 0.0	 0.0	 0.0; % NG
	1686	 723.0	 0.0	 653.0	 -653.0	 1.02	 100.0	 1	 1306	 140.0	 0.0	 0.0	 0.0	 0.0	 0.0	 0.0	 0.0	 0.0	 0.0	 0.0	 0.0; % COW
	1687	 606.5	 0.0	 537.0	 -537.0	 1.02	 100.0	 1	 1073	 140.0	 0.0	 0.0	 0.0	 0.0	 0.0	 0.0	 0.0	 0.0	 0.0	 0.0	 0.0; % COW
	1688	 445.5	 95.855	 567.71	 -376.0	 1.022	 100.0	 1	 751	 140.0	 0.0	 0.0	 0.0	 0.0	 0.0	 0.0	 0.0	 0.0	 0.0	 0.0	 0.0; % COW
	1689	 449.5	 89.58	 559.16	 -380.0	 1.023	 100.0	 1	 759	 140.0	 0.0	 0.0	 0.0	 0.0	 0.0	 0.0	 0.0	 0.0	 0.0	 0.0	 0.0; % COW
	1886	 62.85	 0.0	 60.0	 -60.0	 1.026	 100.0	 1	 120	 5.7	 0.0	 0.0	 0.0	 0.0	 0.0	 0.0	 0.0	 0.0	 0.0	 0.0	 0.0; % NG
	1887	 33.85	 0.0	 31.0	 -31.0	 1.028	 100.0	 1	 62	 5.7	 0.0	 0.0	 0.0	 0.0	 0.0	 0.0	 0.0	 0.0	 0.0	 0.0	 0.0; % PEL
	1888	 30.35	 0.0	 28.0	 -28.0	 1.024	 100.0	 1	 55	 5.7	 0.0	 0.0	 0.0	 0.0	 0.0	 0.0	 0.0	 0.0	 0.0	 0.0	 0.0; % PEL
	1690	 198.75	 32.025	 219.77	 -155.72	 1.013	 100.0	 1	 278	 119.5	 0.0	 0.0	 0.0	 0.0	 0.0	 0.0	 0.0	 0.0	 0.0	 0.0	 0.0; % COW
	1691	 105.75	 0.0	 101.0	 -101.0	 1.026	 100.0	 1	 201	 10.5	 0.0	 0.0	 0.0	 0.0	 0.0	 0.0	 0.0	 0.0	 0.0	 0.0	 0.0; % NG
	1692	 282.7	 18.55	 258.1	 -221.0	 1.073	 100.0	 1	 441	 124.4	 0.0	 0.0	 0.0	 0.0	 0.0	 0.0	 0.0	 0.0	 0.0	 0.0	 0.0; % NG
	1693	 144.4525	 0.0	 124.0	 -124.0	 0.99	 100.0	 1	 248	 40.905	 0.0	 0.0	 0.0	 0.0	 0.0	 0.0	 0.0	 0.0	 0.0	 0.0	 0.0; % NG
	1694	 171.57	 0.0	 151.0	 -151.0	 0.99	 100.0	 1	 302	 41.14	 0.0	 0.0	 0.0	 0.0	 0.0	 0.0	 0.0	 0.0	 0.0	 0.0	 0.0; % NG
	1695	 154.9775	 0.0	 142.0	 -142.0	 0.984	 100.0	 1	 283	 26.955	 0.0	 0.0	 0.0	 0.0	 0.0	 0.0	 0.0	 0.0	 0.0	 0.0	 0.0; % COW
	1696	 204.4925	 0.0	 194.0	 -194.0	 0.988	 100.0	 1	 387	 21.985	 0.0	 0.0	 0.0	 0.0	 0.0	 0.0	 0.0	 0.0	 0.0	 0.0	 0.0; % NG
	1697	 921.9225	 0.0	 865.0	 -865.0	 1.027	 100.0	 1	 1729	 114.845	 0.0	 0.0	 0.0	 0.0	 0.0	 0.0	 0.0	 0.0	 0.0	 0.0	 0.0; % COW
	1698	 680.9225	 0.0	 624.0	 -624.0	 1.027	 100.0	 1	 1247	 114.845	 0.0	 0.0	 0.0	 0.0	 0.0	 0.0	 0.0	 0.0	 0.0	 0.0	 0.0; % COW
	1699	 637.1725	 0.0	 578.0	 -578.0	 1.027	 100.0	 1	 1156	 118.345	 0.0	 0.0	 0.0	 0.0	 0.0	 0.0	 0.0	 0.0	 0.0	 0.0	 0.0; % COW
	1700	 782.9225	 0.0	 720.0	 -720.0	 1.027	 100.0	 1	 1440	 125.845	 0.0	 0.0	 0.0	 0.0	 0.0	 0.0	 0.0	 0.0	 0.0	 0.0	 0.0; % NUC
	1701	 21.6	 0.0	 20.0	 -20.0	 1.028	 100.0	 1	 40	 3.2	 0.0	 0.0	 0.0	 0.0	 0.0	 0.0	 0.0	 0.0	 0.0	 0.0	 0.0; % NG
	1702	 25.995	 0.0	 31.2	 -31.2	 0.97	 100.0	 1	 48	 3.99	 0.0	 0.0	 0.0	 0.0	 0.0	 0.0	 0.0	 0.0	 0.0	 0.0	 0.0; % NG
	1703	 35.995	 0.0	 34.0	 -34.0	 0.97	 100.0	 1	 68	 3.99	 0.0	 0.0	 0.0	 0.0	 0.0	 0.0	 0.0	 0.0	 0.0	 0.0	 0.0; % PEL
	1889	 25.495	 0.0	 31.2	 -31.2	 0.97	 100.0	 1	 47	 3.99	 0.0	 0.0	 0.0	 0.0	 0.0	 0.0	 0.0	 0.0	 0.0	 0.0	 0.0; % NG
	1704	 858.0	 0.0	 773.0	 -773.0	 1.05	 100.0	 1	 1546	 170.0	 0.0	 0.0	 0.0	 0.0	 0.0	 0.0	 0.0	 0.0	 0.0	 0.0	 0.0; % COW
	1705	 811.0	 0.0	 726.0	 -726.0	 1.05	 100.0	 1	 1452	 170.0	 0.0	 0.0	 0.0	 0.0	 0.0	 0.0	 0.0	 0.0	 0.0	 0.0	 0.0; % COW
	1890	 44.7	 0.0	 44.0	 -44.0	 0.955	 100.0	 1	 87	 2.4	 0.0	 0.0	 0.0	 0.0	 0.0	 0.0	 0.0	 0.0	 0.0	 0.0	 0.0; % PEL
	1891	 33.2	 0.0	 32.0	 -32.0	 0.955	 100.0	 1	 64	 2.4	 0.0	 0.0	 0.0	 0.0	 0.0	 0.0	 0.0	 0.0	 0.0	 0.0	 0.0; % NG
	1892	 51.7	 0.0	 51.0	 -51.0	 0.954	 100.0	 1	 101	 2.4	 0.0	 0.0	 0.0	 0.0	 0.0	 0.0	 0.0	 0.0	 0.0	 0.0	 0.0; % PEL
	1706	 21.7	 0.0	 21.0	 -21.0	 0.954	 100.0	 1	 41	 2.4	 0.0	 0.0	 0.0	 0.0	 0.0	 0.0	 0.0	 0.0	 0.0	 0.0	 0.0; % PEL
	1893	 221.75	 0.0	 219.0	 -219.0	 0.998	 100.0	 1	 437	 6.5	 0.0	 0.0	 0.0	 0.0	 0.0	 0.0	 0.0	 0.0	 0.0	 0.0	 0.0; % NG
	1894	 79.0	 0.0	 76.0	 -76.0	 0.994	 100.0	 1	 151	 7.0	 0.0	 0.0	 0.0	 0.0	 0.0	 0.0	 0.0	 0.0	 0.0	 0.0	 0.0; % PEL
	1895	 88.85	 0.0	 86.0	 -86.0	 1.008	 100.0	 1	 171	 6.7	 0.0	 0.0	 0.0	 0.0	 0.0	 0.0	 0.0	 0.0	 0.0	 0.0	 0.0; % NG
	1896	 260.85	 0.0	 258.0	 -258.0	 1.007	 100.0	 1	 515	 6.7	 0.0	 0.0	 0.0	 0.0	 0.0	 0.0	 0.0	 0.0	 0.0	 0.0	 0.0; % COW
	1897	 194.5	 0.0	 191.0	 -191.0	 0.997	 100.0	 1	 382	 7.0	 0.0	 0.0	 0.0	 0.0	 0.0	 0.0	 0.0	 0.0	 0.0	 0.0	 0.0; % NG
	1707	 18.7	 0.0	 18.0	 -18.0	 0.976	 100.0	 1	 35	 2.4	 0.0	 0.0	 0.0	 0.0	 0.0	 0.0	 0.0	 0.0	 0.0	 0.0	 0.0; % NG
	1898	 38.7	 0.0	 38.0	 -38.0	 0.976	 100.0	 1	 75	 2.4	 0.0	 0.0	 0.0	 0.0	 0.0	 0.0	 0.0	 0.0	 0.0	 0.0	 0.0; % PEL
	1899	 51.2	 0.0	 50.0	 -50.0	 0.977	 100.0	 1	 100	 2.4	 0.0	 0.0	 0.0	 0.0	 0.0	 0.0	 0.0	 0.0	 0.0	 0.0	 0.0; % PEL
	1708	 22.7	 0.0	 22.0	 -22.0	 0.981	 100.0	 1	 43	 2.4	 0.0	 0.0	 0.0	 0.0	 0.0	 0.0	 0.0	 0.0	 0.0	 0.0	 0.0; % COW
	1709	 33.7	 0.0	 33.0	 -33.0	 0.976	 100.0	 1	 65	 2.4	 0.0	 0.0	 0.0	 0.0	 0.0	 0.0	 0.0	 0.0	 0.0	 0.0	 0.0; % PEL
	1710	 18.45	 0.0	 17.0	 -17.0	 0.999	 100.0	 1	 34	 2.9	 0.0	 0.0	 0.0	 0.0	 0.0	 0.0	 0.0	 0.0	 0.0	 0.0	 0.0; % NG
	1711	 16.95	 0.0	 16.0	 -16.0	 0.999	 100.0	 1	 31	 2.9	 0.0	 0.0	 0.0	 0.0	 0.0	 0.0	 0.0	 0.0	 0.0	 0.0	 0.0; % NG
	1712	 782.5	 0.0	 711.0	 -711.0	 1.01	 100.0	 1	 1421	 144.0	 0.0	 0.0	 0.0	 0.0	 0.0	 0.0	 0.0	 0.0	 0.0	 0.0	 0.0; % COW
	1713	 866.0	 0.0	 794.0	 -794.0	 1.01	 100.0	 1	 1588	 144.0	 0.0	 0.0	 0.0	 0.0	 0.0	 0.0	 0.0	 0.0	 0.0	 0.0	 0.0; % COW
	1900	 24.1	 0.0	 23.0	 -23.0	 1.023	 100.0	 0	 46	 2.2	 0.0	 0.0	 0.0	 0.0	 0.0	 0.0	 0.0	 0.0	 0.0	 0.0	 0.0; % PEL
	2017	 12.6	 0.0	 12.0	 -12.0	 1.023	 100.0	 0	 23	 2.2	 0.0	 0.0	 0.0	 0.0	 0.0	 0.0	 0.0	 0.0	 0.0	 0.0	 0.0; % PEL
	1714	 231.315	 23.45	 255.9	 -209.0	 1.058	 100.0	 1	 418	 44.63	 0.0	 0.0	 0.0	 0.0	 0.0	 0.0	 0.0	 0.0	 0.0	 0.0	 0.0; % COW
	1901	 23.3	 0.0	 22.0	 -22.0	 1.02	 100.0	 1	 43	 3.6	 0.0	 0.0	 0.0	 0.0	 0.0	 0.0	 0.0	 0.0	 0.0	 0.0	 0.0; % NG
...
];

%% generator cost data
%	2	startup	shutdown	n	c(n-1)	...	c0
mpc.gencost = [
	2	 0.0	 0.0	 3	   0.000000	  45.857638	   0.000000; % NG
	2	 0.0	 0.0	 3	   0.000000	  39.743750	   0.000000; % NG
	2	 0.0	 0.0	 3	   0.000000	 126.040732	   0.000000; % PEL
	2	 0.0	 0.0	 3	   0.000000	  63.503404	   0.000000; % PEL
	2	 0.0	 0.0	 3	   0.000000	  18.491915	   0.000000; % NG
	2	 0.0	 0.0	 3	   0.000000	  51.119154	   0.000000; % PEL
	2	 0.0	 0.0	 3	   0.000000	 154.660319	   0.000000; % PEL
	2	 0.0	 0.0	 3	   0.000000	 136.819885	   0.000000; % PEL
	2	 0.0	 0.0	 3	   0.000000	 113.919615	   0.000000; % PEL
	2	 0.0	 0.0	 3	   0.000000	  58.972639	   0.000000; % PEL
	2	 0.0	 0.0	 3	   0.000000	 148.370676	   0.000000; % NG
	2	 0.0	 0.0	 3	   0.000000	  40.982758	   0.000000; % NG
	2	 0.0	 0.0	 3	   0.000000	  49.871839	   0.000000; % NG
	2	 0.0	 0.0	 3	   0.000000	  35.946213	   0.000000; % NG
	2	 0.0	 0.0	 3	   0.000000	 103.119576	   0.000000; % NG
	2	 0.0	 0.0	 3	   0.000000	  52.721976	   0.000000; % NG
	2	 0.0	 0.0	 3	   0.000000	  52.404785	   0.000000; % NG
	2	 0.0	 0.0	 3	   0.000000	  46.002774	   0.000000; % PEL
	2	 0.0	 0.0	 3	   0.000000	  44.201407	   0.000000; % NG
	2	 0.0	 0.0	 3	   0.000000	 118.638772	   0.000000; % NG
	2	 0.0	 0.0	 3	   0.000000	  40.600135	   0.000000; % PEL
	2	 0.0	 0.0	 3	   0.000000	 119.370453	   0.000000; % NG
	2	 0.0	 0.0	 3	   0.000000	 122.887866	   0.000000; % NG
	2	 0.0	 0.0	 3	   0.000000	  21.831911	   0.000000; % COW
	2	 0.0	 0.0	 3	   0.000000	  38.508376	   0.000000; % NG
	2	 0.0	 0.0	 3	   0.000000	  49.015657	   0.000000; % NG
	2	 0.0	 0.0	 3	   0.000000	  20.219996	   0.000000; % PEL
	2	 0.0	 0.0	 3	   0.000000	 125.613496	   0.000000; % NG
	2	 0.0	 0.0	 3	   0.000000	  54.372442	   0.000000; % NG
	2	 0.0	 0.0	 3	   0.000000	  50.192678	   0.000000; % NG
	2	 0.0	 0.0	 3	   0.000000	  42.226531	   0.000000; % COW
	2	 0.0	 0.0	 3	   0.000000	 125.080102	   0.000000; % NG
	2	 0.0	 0.0	 3	   0.000000	 146.611257	   0.000000; % NG
	2	 0.0	 0.0	 3	   0.000000	  49.745000	   0.000000; % NG
	2	 0.0	 0.0	 3	   0.000000	 126.430101	   0.000000; % NG
	2	 0.0	 0.0	 3	   0.000000	   0.000000	   0.000000; % SYNC
	2	 0.0	 0.0	 3	   0.000000	 138.989907	   0.000000; % NG
	2	 0.0	 0.0	 3	   0.000000	  55.606438	   0.000000; % NG
	2	 0.0	 0.0	 3	   0.000000	 136.941891	   0.000000; % NG
	2	 0.0	 0.0	 3	   0.000000	  51.673147	   0.000000; % PEL
	2	 0.0	 0.0	 3	   0.000000	  63.064263	   0.000000; % NG
	2	 0.0	 0.0	 3	   0.000000	  41.993027	   0.000000; % NG
	2	 0.0	 0.0	 3	   0.000000	  39.608780	   0.000000; % NG
	2	 0.0	 0.0	 3	   0.000000	 115.214053	   0.000000; % NG
	2	 0.0	 0.0	 3	   0.000000	  41.868203	   0.000000; % NG
	2	 0.0	 0.0	 3	   0.000000	 121.905492	   0.000000; % COW
	2	 0.0	 0.0	 3	   0.000000	  43.623469	   0.000000; % NG
	2	 0.0	 0.0	 3	   0.000000	 110.745417	   0.000000; % PEL
	2	 0.0	 0.0	 3	   0.000000	  52.453569	   0.000000; % NG
	2	 0.0	 0.0	 3	   0.000000	  45.691021	   0.000000; % NG
	2	 0.0	 0.0	 3	   0.000000	  56.897247	   0.000000; % NG
	2	 0.0	 0.0	 3	   0.000000	  49.729868	   0.000000; % PEL
	2	 0.0	 0.0	 3	   0.000000	  26.711640	   0.000000; % COW
	2	 0.0	 0.0	 3	   0.000000	 139.507088	   0.000000; % NUC
	2	 0.0	 0.0	 3	   0.000000	  50.297064	   0.000000; % NG
	2	 0.0	 0.0	 3	   0.000000	 144.450325	   0.000000; % PEL
	2	 0.0	 0.0	 3	   0.000000	  37.260202	   0.000000; % COW
	2	 0.0	 0.0	 3	   0.000000	  51.585920	   0.000000; % NG
	2	 0.0	 0.0	 3	   0.000000	  32.781012	   0.000000; % NG
	2	 0.0	 0.0	 3	   0.000000	  26.024949	   0.000000; % NG
	2	 0.0	 0.0	 3	   0.000000	 136.563268	   0.000000; % NG
	2	 0.0	 0.0	 3	   0.000000	 137.005277	   0.000000; % NG
	2	 0.0	 0.0	 3	   0.000000	  28.702903	   0.000000; % COW
	2	 0.0	 0.0	 3	   0.000000	  23.417018	   0.000000; % NG
	2	 0.0	 0.0	 3	   0.000000	  53.315749	   0.000000; % NG
	2	 0.0	 0.0	 3	   0.000000	  43.085130	   0.000000; % NG
	2	 0.0	 0.0	 3	   0.000000	  44.521055	   0.000000; % NG
	2	 0.0	 0.0	 3	   0.000000	  34.201706	   0.000000; % NG
	2	 0.0	 0.0	 3	   0.000000	  59.028047	   0.000000; % NG
	2	 0.0	 0.0	 3	   0.000000	  56.302403	   0.000000; % COW
	2	 0.0	 0.0	 3	   0.000000	   7.601339	   0.000000; % COW
	2	 0.0	 0.0	 3	   0.000000	  36.023840	   0.000000; % NG
	2	 0.0	 0.0	 3	   0.000000	  30.312387	   0.000000; % NUC
	2	 0.0	 0.0	 3	   0.000000	  29.749092	   0.000000; % COW
	2	 0.0	 0.0	 3	   0.000000	  43.408794	   0.000000; % NG
	2	 0.0	 0.0	 3	   0.000000	  50.004469	   0.000000; % NG
	2	 0.0	 0.0	 3	   0.000000	  48.929928	   0.000000; % COW
	2	 0.0	 0.0	 3	   0.000000	  62.979180	   0.000000; % NG
	2	 0.0	 0.0	 3	   0.000000	  40.670788	   0.000000; % NG
	2	 0.0	 0.0	 3	   0.000000	 141.980054	   0.000000; % NG
	2	 0.0	 0.0	 3	   0.000000	  55.485776	   0.000000; % PEL
	2	 0.0	 0.0	 3	   0.000000	 134.454114	   0.000000; % NG
	2	 0.0	 0.0	 3	   0.000000	  44.323079	   0.000000; % NG
	2	 0.0	 0.0	 3	   0.000000	  46.586010	   0.000000; % PEL
	2	 0.0	 0.0	 3	   0.000000	  16.897345	   0.000000; % NG
	2	 0.0	 0.0	 3	   0.000000	  45.331644	   0.000000; % PEL
	2	 0.0	 0.0	 3	   0.000000	  40.484659	   0.000000; % NG
	2	 0.0	 0.0	 3	   0.000000	  58.574570	   0.000000; % COW
	2	 0.0	 0.0	 3	   0.000000	  48.114346	   0.000000; % NG
	2	 0.0	 0.0	 3	   0.000000	  58.137733	   0.000000; % NG
	2	 0.0	 0.0	 3	   0.000000	  11.871890	   0.000000; % NG
	2	 0.0	 0.0	 3	   0.000000	 119.250835	   0.000000; % NG
	2	 0.0	 0.0	 3	   0.000000	  48.215584	   0.000000; % PEL
	2	 0.0	 0.0	 3	   0.000000	   7.403302	   0.000000; % COW
	2	 0.0	 0.0	 3	   0.000000	  23.351981	   0.000000; % COW
	2	 0.0	 0.0	 3	   0.000000	  20.124074	   0.000000; % COW
	2	 0.0	 0.0	 3	   0.000000	  22.751057	   0.000000; % COW
	2	 0.0	 0.0	 3	   0.000000	  25.380782	   0.000000; % COW
	2	 0.0	 0.0	 3	   0.000000	  27.060329	   0.000000; % COW
	2	 0.0	 0.0	 3	   0.000000	 136.075935	   0.000000; % NG
	2	 0.0	 0.0	 3	   0.000000	  31.781662	   0.000000; % NG
	2	 0.0	 0.0	 3	   0.000000	  81.781077	   0.000000; % COW
	2	 0.0	 0.0	 3	   0.000000	 159.157512	   0.000000; % NG
	2	 0.0	 0.0	 3	   0.000000	  72.948859	   0.000000; % PEL
	2	 0.0	 0.0	 3	   0.000000	  58.531634	   0.000000; % NG
	2	 0.0	 0.0	 3	   0.000000	 110.645129	   0.000000; % PEL
	2	 0.0	 0.0	 3	   0.000000	  66.839394	   0.000000; % NG
	2	 0.0	 0.0	 3	   0.000000	  40.317028	   0.000000; % PEL
	2	 0.0	 0.0	 3	   0.000000	  56.037841	   0.000000; % NG
	2	 0.0	 0.0	 3	   0.000000	  60.340345	   0.000000; % PEL
	2	 0.0	 0.0	 3	   0.000000	  30.598521	   0.000000; % NG
	2	 0.0	 0.0	 3	   0.000000	  44.657222	   0.000000; % COW
	2	 0.0	 0.0	 3	   0.000000	  52.380912	   0.000000; % PEL
	2	 0.0	 0.0	 3	   0.000000	 139.975316	   0.000000; % NG
	2	 0.0	 0.0	 3	   0.000000	 140.250350	   0.000000; % NG
	2	 0.0	 0.0	 3	   0.000000	  52.379785	   0.000000; % PEL
	2	 0.0	 0.0	 3	   0.000000	  33.875629	   0.000000; % NG
	2	 0.0	 0.0	 3	   0.000000	  42.899820	   0.000000; % PEL
	2	 0.0	 0.0	 3	   0.000000	 154.476189	   0.000000; % PEL
	2	 0.0	 0.0	 3	   0.000000	  29.306392	   0.000000; % COW
	2	 0.0	 0.0	 3	   0.000000	  18.452185	   0.000000; % COW
	2	 0.0	 0.0	 3	   0.000000	 131.873653	   0.000000; % COW
	2	 0.0	 0.0	 3	   0.000000	  16.137982	   0.000000; % COW
	2	 0.0	 0.0	 3	   0.000000	  50.837974	   0.000000; % NG
	2	 0.0	 0.0	 3	   0.000000	  48.781563	   0.000000; % NG
	2	 0.0	 0.0	 3	   0.000000	  44.552133	   0.000000; % NG
	2	 0.0	 0.0	 3	   0.000000	 115.213729	   0.000000; % PEL
	2	 0.0	 0.0	 3	   0.000000	  50.915605	   0.000000; % COW
	2	 0.0	 0.0	 3	   0.000000	  47.470729	   0.000000; % NG
	2	 0.0	 0.0	 3	   0.000000	  34.899264	   0.000000; % COW
	2	 0.0	 0.0	 3	   0.000000	  47.000729	   0.000000; % NUC
	2	 0.0	 0.0	 3	   0.000000	  31.096030	   0.000000; % COW
	2	 0.0	 0.0	 3	   0.000000	  19.117423	   0.000000; % COW
	2	 0.0	 0.0	 3	   0.000000	   8.008246	   0.000000; % NUC
	2	 0.0	 0.0	 3	   0.000000	  24.558983	   0.000000; % COW
	2	 0.0	 0.0	 3	   0.000000	  20.740989	   0.000000; % COW
	2	 0.0	 0.0	 3	   0.000000	 162.219503	   0.000000; % PEL
	2	 0.0	 0.0	 3	   0.000000	  38.819129	   0.000000; % NG
	2	 0.0	 0.0	 3	   0.000000	  59.381843	   0.000000; % NG
	2	 0.0	 0.0	 3	   0.000000	  55.498764	   0.000000; % NG
	2	 0.0	 0.0	 3	   0.000000	  56.081596	   0.000000; % NG
	2	 0.0	 0.0	 3	   0.000000	   9.576490	   0.000000; % COW
	2	 0.0	 0.0	 3	   0.000000	  57.552561	   0.000000; % NG
	2	 0.0	 0.0	 3	   0.000000	  35.015685	   0.000000; % COW
	2	 0.0	 0.0	 3	   0.000000	  27.114426	   0.000000; % COW
	2	 0.0	 0.0	 3	   0.000000	 123.962714	   0.000000; % COW
	2	 0.0	 0.0	 3	   0.000000	  56.166472	   0.000000; % NG
	2	 0.0	 0.0	 3	   0.000000	  23.269503	   0.000000; % NG
	2	 0.0	 0.0	 3	   0.000000	  43.852197	   0.000000; % NG
	2	 0.0	 0.0	 3	   0.000000	  56.970905	   0.000000; % NG
	2	 0.0	 0.0	 3	   0.000000	 134.142860	   0.000000; % NG
	2	 0.0	 0.0	 3	   0.000000	  53.196677	   0.000000; % NG
	2	 0.0	 0.0	 3	   0.000000	  49.861585	   0.000000; % NG
	2	 0.0	 0.0	 3	   0.000000	  42.542330	   0.000000; % NG
	2	 0.0	 0.0	 3	   0.000000	  22.014874	   0.000000; % COW
	2	 0.0	 0.0	 3	   0.000000	  77.573211	   0.000000; % COW
	2	 0.0	 0.0	 3	   0.000000	  17.048500	   0.000000; % COW
	2	 0.0	 0.0	 3	   0.000000	  22.325986	   0.000000; % COW
	2	 0.0	 0.0	 3	   0.000000	  37.247958	   0.000000; % NG
	2	 0.0	 0.0	 3	   0.000000	  39.848677	   0.000000; % PEL
	2	 0.0	 0.0	 3	   0.000000	  37.959126	   0.000000; % PEL
	2	 0.0	 0.0	 3	   0.000000	  24.603058	   0.000000; % COW
	2	 0.0	 0.0	 3	   0.000000	  57.977510	   0.000000; % NG
	2	 0.0	 0.0	 3	   0.000000	  31.864483	   0.000000; % NG
	2	 0.0	 0.0	 3	   0.000000	  68.417879	   0.000000; % NG
	2	 0.0	 0.0	 3	   0.000000	  40.475849	   0.000000; % NG
	2	 0.0	 0.0	 3	   0.000000	  54.577262	   0.000000; % COW
	2	 0.0	 0.0	 3	   0.000000	  48.816562	   0.000000; % NG
	2	 0.0	 0.0	 3	   0.000000	   7.633716	   0.000000; % COW
	2	 0.0	 0.0	 3	   0.000000	  22.932067	   0.000000; % COW
	2	 0.0	 0.0	 3	   0.000000	  32.717266	   0.000000; % COW
	2	 0.0	 0.0	 3	   0.000000	  30.655152	   0.000000; % NUC
	2	 0.0	 0.0	 3	   0.000000	 115.552321	   0.000000; % NG
	2	 0.0	 0.0	 3	   0.000000	  37.159032	   0.000000; % NG
	2	 0.0	 0.0	 3	   0.000000	  47.590794	   0.000000; % PEL
	2	 0.0	 0.0	 3	   0.000000	  46.393060	   0.000000; % NG
	2	 0.0	 0.0	 3	   0.000000	  23.205760	   0.000000; % COW
	2	 0.0	 0.0	 3	   0.000000	  42.101322	   0.000000; % COW
	2	 0.0	 0.0	 3	   0.000000	  30.234606	   0.000000; % PEL
	2	 0.0	 0.0	 3	   0.000000	  39.957388	   0.000000; % NG
	2	 0.0	 0.0	 3	   0.000000	 134.210292	   0.000000; % PEL
	2	 0.0	 0.0	 3	   0.000000	 121.650242	   0.000000; % PEL
	2	 0.0	 0.0	 3	   0.000000	 141.085800	   0.000000; % NG
	2	 0.0	 0.0	 3	   0.000000	 108.207587	   0.000000; % PEL
	2	 0.0	 0.0	 3	   0.000000	 124.130113	   0.000000; % NG
	2	 0.0	 0.0	 3	   0.000000	 121.169190	   0.000000; % COW
	2	 0.0	 0.0	 3	   0.000000	 119.436676	   0.000000; % NG
	2	 0.0	 0.0	 3	   0.000000	 105.138754	   0.000000; % NG
	2	 0.0	 0.0	 3	   0.000000	 142.986838	   0.000000; % PEL
	2	 0.0	 0.0	 3	   0.000000	  49.970225	   0.000000; % PEL
	2	 0.0	 0.0	 3	   0.000000	  96.259583	   0.000000; % COW
	2	 0.0	 0.0	 3	   0.000000	 148.424703	   0.000000; % PEL
	2	 0.0	 0.0	 3	   0.000000	  30.789099	   0.000000; % NG
	2	 0.0	 0.0	 3	   0.000000	  53.871512	   0.000000; % NG
	2	 0.0	 0.0	 3	   0.000000	  14.288235	   0.000000; % COW
	2	 0.0	 0.0	 3	   0.000000	  29.892113	   0.000000; % COW
	2	 0.0	 0.0	 3	   0.000000	  30.418597	   0.000000; % PEL
	2	 0.0	 0.0	 3	   0.000000	  32.032183	   0.000000; % PEL
	2	 0.0	 0.0	 3	   0.000000	  45.306645	   0.000000; % COW
	2	 0.0	 0.0	 3	   0.000000	 127.617954	   0.000000; % NG
...
];

%% branch data
%	fbus	tbus	r	x	b	rateA	rateB	rateC	ratio	angle	status	angmin	angmax
mpc.branch = [
	1833	 1	 0.002607	 0.017462	 0.0324	 540.0	 540.0	 540.0	 1.0	 0.0	 1	 -30.0	 30.0;
	29	 2	 2.1e-05	 0.000125	 0.1386	 737.0	 737.0	 737.0	 1.0	 0.0	 1	 -30.0	 30.0;
	675	 2	 0.000145	 0.001877	 0.0635	 2487.0	 2487.0	 2487.0	 1.0	 0.0	 1	 -30.0	 30.0;
	1271	 2	 0.000319	 0.003234	 0.0838	 1841.0	 1841.0	 1841.0	 1.0	 0.0	 1	 -30.0	 30.0;
	30	 2	 2.1e-05	 0.000125	 0.1386	 737.0	 737.0	 737.0	 1.0	 0.0	 1	 -30.0	 30.0;
	142	 3	 0.006163	 0.041067	 0.0759	 446.0	 446.0	 446.0	 1.0	 0.0	 1	 -30.0	 30.0;
	677	 3	 0.000652	 0.004369	 0.0081	 558.0	 558.0	 558.0	 1.0	 0.0	 1	 -30.0	 30.0;
	1048	 4	 0.009733	 0.034089	 0.0185	 905.0	 905.0	 905.0	 1.0	 0.0	 1	 -30.0	 30.0;
	101	 5	 0.000277	 0.002015	 0.003	 288.0	 288.0	 288.0	 1.0	 0.0	 1	 -30.0	 30.0;
	286	 6	 0.00881	 0.033995	 0.0607	 289.0	 289.0	 289.0	 1.0	 0.0	 1	 -30.0	 30.0;
	329	 6	 0.004642	 0.019832	 0.0354	 255.0	 255.0	 255.0	 1.0	 0.0	 1	 -30.0	 30.0;
	737	 5	 0.008861	 0.03506	 0.0623	 288.0	 288.0	 288.0	 1.0	 0.0	 1	 -30.0	 30.0;
	760	 5	 0.006993	 0.032869	 0.0557	 255.0	 255.0	 255.0	 1.0	 0.0	 1	 -30.0	 30.0;
	1330	 6	 0.002173	 0.008731	 0.0152	 3441.0	 3441.0	 3441.0	 1.0	 0.0	 1	 -30.0	 30.0;
	1350	 5	 0.00077	 0.003121	 0.0051	 9629.0	 9629.0	 9629.0	 1.0	 0.0	 1	 -30.0	 30.0;
	1523	 6	 0.004109	 0.016138	 0.0284	 288.0	 288.0	 288.0	 1.0	 0.0	 1	 -30.0	 30.0;
	102	 8	 8.3e-05	 0.000907	 0.0202	 1034.0	 1034.0	 1034.0	 1.0	 0.0	 1	 -30.0	 30.0;
	316	 8	 0.000552	 0.006726	 0.0939	 1786.0	 1786.0	 1786.0	 1.0	 0.0	 1	 -30.0	 30.0;
	623	 8	 0.000512	 0.008012	 0.2455	 2462.0	 2462.0	 2462.0	 1.0	 0.0	 1	 -30.0	 30.0;
	882	 8	 0.001107	 0.00918	 0.1906	 1644.0	 1644.0	 1644.0	 1.0	 0.0	 1	 -30.0	 30.0;
	103	 7	 6.2e-05	 0.000741	 0.0173	 1095.0	 1095.0	 1095.0	 1.0	 0.0	 1	 -30.0	 30.0;
	623	 8	 0.000512	 0.008019	 0.2455	 2462.0	 2462.0	 2462.0	 1.0	 0.0	 1	 -30.0	 30.0;
	623	 7	 0.001153	 0.013123	 0.1841	 1433.0	 1433.0	 1433.0	 1.0	 0.0	 1	 -30.0	 30.0;
	113	 9	 0.000158	 0.000672	 0.0719	 331.0	 331.0	 331.0	 1.0	 0.0	 1	 -30.0	 30.0;
	1134	 9	 4.5e-05	 8.9e-05	 0.002	 268.0	 268.0	 268.0	 1.0	 0.0	 1	 -30.0	 30.0;
	346	 10	 0.00478	 0.028622	 0.0547	 455.0	 455.0	 455.0	 1.0	 0.0	 1	 -30.0	 30.0;
	345	 10	 0.00478	 0.028583	 0.0547	 455.0	 455.0	 455.0	 1.0	 0.0	 1	 -30.0	 30.0;
	106	 11	 0.000257	 0.000514	 0.0294	 53862.0	 53862.0	 53862.0	 1.0	 0.0	 1	 -30.0	 30.0;
	758	 12	 0.000257	 0.002153	 0.2147	 452.0	 452.0	 452.0	 1.0	 0.0	 1	 -30.0	 30.0;
	962	 12	 0.000277	 0.000869	 0.0931	 481.0	 481.0	 481.0	 1.0	 0.0	 1	 -30.0	 30.0;
	955	 13	 0.000237	 0.00083	 0.1863	 268.0	 268.0	 268.0	 1.0	 0.0	 1	 -30.0	 30.0;
	995	 13	 0.000178	 0.000612	 0.1377	 268.0	 268.0	 268.0	 1.0	 0.0	 1	 -30.0	 30.0;
	39	 14	 0.002568	 0.011753	 0.0203	 424.0	 424.0	 424.0	 1.0	 0.0	 1	 -30.0	 30.0;
	1428	 14	 0.002568	 0.011615	 0.0228	 290.0	 290.0	 290.0	 1.0	 0.0	 1	 -30.0	 30.0;
	1054	 16	 9.9e-05	 0.00077	 0.078	 379.0	 379.0	 379.0	 1.0	 0.0	 1	 -30.0	 30.0;
	1054	 15	 9.9e-05	 0.00077	 0.077	 379.0	 379.0	 379.0	 1.0	 0.0	 1	 -30.0	 30.0;
	1428	 17	 0.000514	 0.003437	 0.0061	 290.0	 290.0	 290.0	 1.0	 0.0	 1	 -30.0	 30.0;
	1432	 17	 0.005476	 0.036879	 0.1255	 522.0	 522.0	 522.0	 1.0	 0.0	 1	 -30.0	 30.0;
	39	 17	 0.000514	 0.003457	 0.0061	 418.0	 418.0	 418.0	 1.0	 0.0	 1	 -30.0	 30.0;
	869	 18	 0.003477	 0.01118	 0.0187	 304.0	 304.0	 304.0	 1.0	 0.0	 1	 -30.0	 30.0;
	1089	 18	 0.000612	 0.003121	 0.0152	 270.0	 270.0	 270.0	 1.0	 0.0	 1	 -30.0	 30.0;
	1164	 20	 2.4e-05	 0.000144	 0.0213	 701.0	 701.0	 701.0	 1.0	 0.0	 1	 -30.0	 30.0;
	1164	 19	 7.1e-05	 0.000162	 0.0162	 251.0	 251.0	 251.0	 1.0	 0.0	 1	 -30.0	 30.0;
	972	 21	 0.000257	 0.001165	 0.002	 405.0	 405.0	 405.0	 1.0	 0.0	 1	 -30.0	 30.0;
	476	 22	 0.005709	 0.037926	 0.0688	 492.0	 492.0	 492.0	 1.0	 0.0	 1	 -30.0	 30.0;
	1497	 22	 0.001758	 0.011654	 0.0208	 492.0	 492.0	 492.0	 1.0	 0.0	 1	 -30.0	 30.0;
	69	 23	 0.001383	 0.009462	 0.0172	 463.0	 463.0	 463.0	 1.0	 0.0	 1	 -30.0	 30.0;
	446	 23	 0.00156	 0.006933	 0.0121	 432.0	 432.0	 432.0	 1.0	 0.0	 1	 -30.0	 30.0;
	605	 23	 0.006376	 0.028733	 0.0506	 432.0	 432.0	 432.0	 1.0	 0.0	 1	 -30.0	 30.0;
	987	 23	 0.00158	 0.010627	 0.0192	 481.0	 481.0	 481.0	 1.0	 0.0	 1	 -30.0	 30.0;
	845	 25	 0.001086	 0.003536	 0.3766	 506.0	 506.0	 506.0	 1.0	 0.0	 1	 -30.0	 30.0;
...